                                   MODFLOW 6
                U.S. GEOLOGICAL SURVEY MODULAR HYDROLOGIC MODEL
                          GROUNDWATER FLOW MODEL (GWF)
                  VERSION 6.5.0.dev2 (preliminary) 04/22/2024
                               ***DEVELOP MODE***

        MODFLOW 6 compiled Apr 22 2024 02:30:33 with GCC version 13.2.0

This software is preliminary or provisional and is subject to 
revision. It is being provided to meet the need for timely best 
science. The software has not received final approval by the U.S. 
Geological Survey (USGS). No warranty, expressed or implied, is made 
by the USGS or the U.S. Government as to the functionality of the 
software and related material nor shall the fact of release 
constitute any such warranty. The software is provided on the 
condition that neither the USGS nor the U.S. Government shall be held 
liable for any damages resulting from the authorized or unauthorized 
use of the software.


As a work of the United States Government, this USGS product is 
in the public domain within the United States. You can copy, 
modify, distribute, and perform the work, even for commercial 
purposes, all without asking permission. Additionally, USGS 
waives copyright and related rights in the work worldwide 
through CC0 1.0 Universal Public Domain Dedication 
(https://creativecommons.org/publicdomain/zero/1.0/).

The following GNU Lesser General Public License (LGPL) libraries
are used in this USGS product:

    SPARSKIT version 2.0
      ilut, luson, and qsplit 
      (https://www-users.cse.umn.edu/~saad/software/SPARSKIT/)

    RCM - Reverse Cuthill McKee Ordering
      (https://people.math.sc.edu/Burkardt/f_src/rcm/rcm.html)

    BLAS - Basic Linear Algebra Subprograms Level 1
      (https://people.math.sc.edu/Burkardt/f_src/blas1_d/blas1_d.html)

    SPARSEKIT - Sparse Matrix Utility Package
      amux, dperm, dvperm, rperm, and cperm
      (https://people.sc.fsu.edu/~jburkardt/f77_src/sparsekit/sparsekit.html)

The following BSD-3 License libraries are used in this USGS product:

    Modern Fortran DAG Library
      Copyright (c) 2018, Jacob Williams
      All rights reserved.
      (https://github.com/jacobwilliams/daglib)

MODFLOW 6 compiler options: -fdiagnostics-color=always -cpp -I
src/libmf6core.a.p -I src -I ../src -I src/libmf6_external.a.p -iprefix
/opt/homebrew/Cellar/gcc/13.2.0/bin/../lib/gcc/current/gcc/aarch64-apple-darwi
n23/13/ -D__DYNAMIC__ -D __APPLE__ -fPIC -mmacosx-version-min=14.0.0
-mlittle-endian -mabi=lp64 -O2 -Wall -Wpedantic -Wcharacter-truncation
-Wno-unused-dummy-argument -Wno-intrinsic-shadow -Wno-maybe-uninitialized
-Wno-uninitialized -std=f2008 -fall-intrinsics -ffpe-summary=overflow
-ffpe-trap=overflow,zero,invalid -J src/libmf6core.a.p

System command used to initiate simulation:


MODFLOW was compiled using uniform precision.

Real Variables
  KIND: 8
  TINY (smallest non-zero value):    2.225074-308
  HUGE (largest value):    1.797693+308
  PRECISION: 15
  SIZE IN BITS: 64

Integer Variables
  KIND: 4
  HUGE (largest value): 2147483647
  SIZE IN BITS: 32

Long Integer Variables
  KIND: 8
  HUGE (largest value): 9223372036854775807
  SIZE IN BITS: 64

Logical Variables
  KIND: 4
  SIZE IN BITS: 32

 NAMEFILE OPTIONS:
 END NAMEFILE OPTIONS:

 DIS -- STRUCTURED GRID DISCRETIZATION PACKAGE, VERSION 2 : 3/27/2014 - INPUT READ FROM MEMPATH: __INPUT__/HILLSLOPE/DIS                           


 NPF -- NODE PROPERTY FLOW PACKAGE, VERSION 1, 3/30/2015 INPUT READ FROM MEMPATH: __INPUT__/HILLSLOPE/NPF                           


 IC -- Initial Conditions Package, Version 8, 3/28/2015 input read from mempath: __INPUT__/HILLSLOPE/IC                            


 Setting Discretization Options
 End Setting Discretization Options

 Setting Discretization Dimensions
    NLAY = 1
    NROW = 12
    NCOL = 24
 End Setting Discretization Dimensions

 Setting Discretization Griddata
    DELR set from input file
    DELC set from input file
    TOP set from input file
    BOTM set from input file
 End Setting Discretization Griddata

 Setting NPF Options
    Cell-by-cell flow information will be saved to binary file whenever ICBCFL is not zero.
 End Setting NPF Options

 Setting NPF Griddata
    ICELLTYPE set from input file
    K set from input file
    K33 not provided.  Setting K33 = K.
    K22 not provided.  Setting K22 = K.
 End Setting NPF Griddata


 CHD   -- CHD PACKAGE, VERSION 8, 2/22/2014 INPUT READ FROM MEMPATH: __INPUT__/HILLSLOPE/CHD                           

 PROCESSING CHD BASE OPTIONS
    FLOWS WILL BE SAVED TO BUDGET FILE SPECIFIED IN OUTPUT CONTROL
 END OF CHD BASE OPTIONS

 PROCESSING CHD BASE DIMENSIONS
    MAXBOUND =      68
 END OF CHD BASE DIMENSIONS
    STRT set from input file
    BINARY GRID INFORMATION WILL BE WRITTEN TO:
      UNIT NUMBER: 1012
      FILE NAME: hillslope.dis.grb

 OPENED hillslope.dis.grb
 FILE TYPE:DATA(BINARY)   UNIT 1012   STATUS:REPLACE             
 FORMAT:UNFORMATTED            ACCESS:STREAM              
 ACTION:READWRITE           

      THE LAST TIME STEP WILL BE PRINTED
      THE LAST TIME STEP WILL BE PRINTED
 # File generated by Flopy version 3.6.0 on 04/23/2024 at 11:19:39.

 PROCESSING OC OPTIONS

    BUDGET INFORMATION WILL BE WRITTEN TO:
      UNIT NUMBER: 1013
      FILE NAME: hillslope.cbb

 OPENED hillslope.cbb
 FILE TYPE:DATA(BINARY)   UNIT 1013   STATUS:REPLACE             
 FORMAT:UNFORMATTED            ACCESS:STREAM              
 ACTION:READWRITE           

    HEAD INFORMATION WILL BE WRITTEN TO:
      UNIT NUMBER: 1014
      FILE NAME: hillslope.hds

 OPENED hillslope.hds
 FILE TYPE:DATA(BINARY)   UNIT 1014   STATUS:REPLACE             
 FORMAT:UNFORMATTED            ACCESS:STREAM              
 ACTION:READWRITE           

 END OF OC OPTIONS

start timestep kper="1" kstp="1" mode="normal"


 BEGIN READING OUTPUT CONTROL FOR STRESS PERIOD 1
      ALL TIME STEPS WILL BE SAVED
      ALL TIME STEPS WILL BE SAVED
      THE LAST TIME STEP WILL BE PRINTED

 END READING OUTPUT CONTROL FOR STRESS PERIOD 1
 UBDSV1 SAVING     FLOW-JA-FACE ON UNIT   1013 AT TIME STEP      1, STRESS PERIOD      1
 UBDSV06 SAVING              CHD IN MODEL HILLSLOPE        PACKAGE HILLSLOPE       CONNECTED TO MODEL HILLSLOPE        PACKAGE CHD              ON UNIT   1013 AT TIME STEP      1, STRESS PERIOD      1
1
  HEAD IN LAYER   1 AT END OF TIME STEP   1 IN STRESS PERIOD    1
  ---------------------------------------------------------------------------

            1           2           3           4           5           6           7           8           9          10
           11          12          13          14          15          16          17          18          19          20
           21          22          23          24
 ................................................................................................................................................................................................................................................................................................
   1    178.9       178.9       178.9       178.9       178.9       178.9       178.9       178.9       178.9       178.9    
        178.9       178.9       178.9       178.9       178.9       178.9       178.9       178.9       178.9       178.9    
        178.9       178.9       178.9       178.9    
   2    178.9       178.9       178.9       178.9       178.9       178.9       178.9       178.9       178.9       178.9    
        178.9       178.9       178.9       178.9       178.9       178.9       178.9       178.9       178.9       178.9    
        178.9       178.9       178.9       178.9    
   3    178.8       178.8       178.8       178.8       178.8       178.8       178.8       178.8       178.8       178.8    
        178.8       178.8       178.8       178.8       178.8       178.8       178.8       178.8       178.8       178.8    
        178.8       178.8       178.8       178.8    
   4    178.7       178.7       178.7       178.7       178.7       178.7       178.7       178.7       178.7       178.7    
        178.7       178.7       178.7       178.7       178.7       178.7       178.7       178.7       178.7       178.7    
        178.7       178.7       178.7       178.7    
   5    178.6       178.6       178.6       178.6       178.6       178.6       178.6       178.6       178.6       178.6    
        178.6       178.6       178.6       178.6       178.6       178.6       178.6       178.6       178.6       178.6    
        178.6       178.6       178.6       178.6    
   6    178.5       178.5       178.5       178.5       178.5       178.5       178.5       178.5       178.5       178.5    
        178.5       178.5       178.5       178.5       178.5       178.5       178.5       178.5       178.5       178.5    
        178.5       178.5       178.5       178.5    
   7    178.4       178.4       178.4       178.4       178.4       178.4       178.4       178.4       178.4       178.4    
        178.4       178.4       178.4       178.4       178.4       178.4       178.4       178.4       178.4       178.4    
        178.4       178.4       178.4       178.4    
   8    178.3       178.3       178.3       178.3       178.3       178.3       178.3       178.3       178.3       178.3    
        178.3       178.3       178.3       178.3       178.3       178.3       178.3       178.3       178.3       178.3    
        178.3       178.3       178.3       178.3    
   9    178.2       178.2       178.2       178.2       178.2       178.2       178.2       178.2       178.2       178.2    
        178.2       178.2       178.2       178.2       178.2       178.2       178.2       178.2       178.2       178.2    
        178.2       178.2       178.2       178.2    
  10    178.1       178.1       178.1       178.1       178.1       178.1       178.1       178.1       178.1       178.1    
        178.1       178.1       178.1       178.1       178.1       178.1       178.1       178.1       178.1       178.1    
        178.1       178.1       178.1       178.1    
  11    178.0       178.0       178.0       178.0       178.0       178.0       178.0       178.0       178.0       178.0    
        178.0       178.0       178.0       178.0       178.0       178.0       178.0       178.0       178.0       178.0    
        178.0       178.0       178.0       178.0    
  12    177.9       177.9       177.9       177.9       177.9       177.9       177.9       177.9       177.9       177.9    
        177.9       177.9       177.9       177.9       177.9       177.9       177.9       177.9       177.9       177.9    
        177.9       177.9       177.9       177.9    

 HEAD WILL BE SAVED ON UNIT 1014 AT END OF TIME STEP    1, STRESS PERIOD    1


  VOLUME BUDGET FOR ENTIRE MODEL AT END OF TIME STEP    1, STRESS PERIOD   1
  ---------------------------------------------------------------------------------------------------

     CUMULATIVE VOLUME      L**3       RATES FOR THIS TIME STEP      L**3/T          PACKAGE NAME    
     ------------------                 ------------------------                     ----------------

           IN:                                      IN:
           ---                                      ---
                 CHD =           1.9225                   CHD =           1.9225     CHD                              

            TOTAL IN =           1.9225              TOTAL IN =           1.9225

          OUT:                                     OUT:
          ----                                     ----
                 CHD =           1.9230                   CHD =           1.9230     CHD                              

           TOTAL OUT =           1.9230             TOTAL OUT =           1.9230

            IN - OUT =      -4.5324E-04              IN - OUT =      -4.5324E-04

 PERCENT DISCREPANCY =          -0.02     PERCENT DISCREPANCY =          -0.02




         TIME SUMMARY AT END OF TIME STEP    1 IN STRESS PERIOD    1
                    SECONDS     MINUTES      HOURS       DAYS        YEARS
                    -----------------------------------------------------------
   TIME STEP LENGTH  86400.      1440.0      24.000      1.0000     2.73785E-03
 STRESS PERIOD TIME  86400.      1440.0      24.000      1.0000     2.73785E-03
         TOTAL TIME  86400.      1440.0      24.000      1.0000     2.73785E-03


end timestep


start timestep kper="2" kstp="1" mode="normal"


 END OF FILE DETECTED IN OUTPUT CONTROL.
 CURRENT OUTPUT CONTROL SETTINGS WILL BE 
 REPEATED UNTIL THE END OF THE SIMULATION.

 OUTPUT CONTROL FOR STRESS PERIOD 2 IS REPEATED USING SETTINGS FROM A PREVIOUS STRESS PERIOD.
 UBDSV1 SAVING     FLOW-JA-FACE ON UNIT   1013 AT TIME STEP      1, STRESS PERIOD      2
 UBDSV06 SAVING              CHD IN MODEL HILLSLOPE        PACKAGE HILLSLOPE       CONNECTED TO MODEL HILLSLOPE        PACKAGE CHD              ON UNIT   1013 AT TIME STEP      1, STRESS PERIOD      2
1
  HEAD IN LAYER   1 AT END OF TIME STEP   1 IN STRESS PERIOD    2
  ---------------------------------------------------------------------------

            1           2           3           4           5           6           7           8           9          10
           11          12          13          14          15          16          17          18          19          20
           21          22          23          24
 ................................................................................................................................................................................................................................................................................................
   1    178.9       178.9       178.9       178.9       178.9       178.9       178.9       178.9       178.9       178.9    
        178.9       178.9       178.9       178.9       178.9       178.9       178.9       178.9       178.9       178.9    
        178.9       178.9       178.9       178.9    
   2    178.9       178.9       178.9       178.9       178.9       178.9       178.9       178.9       178.9       178.9    
        178.9       178.9       178.9       178.9       178.9       178.9       178.9       178.9       178.9       178.9    
        178.9       178.9       178.9       178.9    
   3    178.8       178.8       178.8       178.8       178.8       178.8       178.8       178.8       178.8       178.8    
        178.8       178.8       178.8       178.8       178.8       178.8       178.8       178.8       178.8       178.8    
        178.8       178.8       178.8       178.8    
   4    178.7       178.7       178.7       178.7       178.7       178.7       178.7       178.7       178.7       178.7    
        178.7       178.7       178.7       178.7       178.7       178.7       178.7       178.7       178.7       178.7    
        178.7       178.7       178.7       178.7    
   5    178.6       178.6       178.6       178.6       178.6       178.6       178.6       178.6       178.6       178.6    
        178.6       178.6       178.6       178.6       178.6       178.6       178.6       178.6       178.6       178.6    
        178.6       178.6       178.6       178.6    
   6    178.5       178.5       178.5       178.5       178.5       178.5       178.5       178.5       178.5       178.5    
        178.5       178.5       178.5       178.5       178.5       178.5       178.5       178.5       178.5       178.5    
        178.5       178.5       178.5       178.5    
   7    178.4       178.4       178.4       178.4       178.4       178.4       178.4       178.4       178.4       178.4    
        178.4       178.4       178.4       178.4       178.4       178.4       178.4       178.4       178.4       178.4    
        178.4       178.4       178.4       178.4    
   8    178.3       178.3       178.3       178.3       178.3       178.3       178.3       178.3       178.3       178.3    
        178.3       178.3       178.3       178.3       178.3       178.3       178.3       178.3       178.3       178.3    
        178.3       178.3       178.3       178.3    
   9    178.2       178.2       178.2       178.2       178.2       178.2       178.2       178.2       178.2       178.2    
        178.2       178.2       178.2       178.2       178.2       178.2       178.2       178.2       178.2       178.2    
        178.2       178.2       178.2       178.2    
  10    178.1       178.1       178.1       178.1       178.1       178.1       178.1       178.1       178.1       178.1    
        178.1       178.1       178.1       178.1       178.1       178.1       178.1       178.1       178.1       178.1    
        178.1       178.1       178.1       178.1    
  11    178.0       178.0       178.0       178.0       178.0       178.0       178.0       178.0       178.0       178.0    
        178.0       178.0       178.0       178.0       178.0       178.0       178.0       178.0       178.0       178.0    
        178.0       178.0       178.0       178.0    
  12    177.9       177.9       177.9       177.9       177.9       177.9       177.9       177.9       177.9       177.9    
        177.9       177.9       177.9       177.9       177.9       177.9       177.9       177.9       177.9       177.9    
        177.9       177.9       177.9       177.9    

 HEAD WILL BE SAVED ON UNIT 1014 AT END OF TIME STEP    1, STRESS PERIOD    2


  VOLUME BUDGET FOR ENTIRE MODEL AT END OF TIME STEP    1, STRESS PERIOD   2
  ---------------------------------------------------------------------------------------------------

     CUMULATIVE VOLUME      L**3       RATES FOR THIS TIME STEP      L**3/T          PACKAGE NAME    
     ------------------                 ------------------------                     ----------------

           IN:                                      IN:
           ---                                      ---
                 CHD =           3.8453                   CHD =           1.9228     CHD                              

            TOTAL IN =           3.8453              TOTAL IN =           1.9228

          OUT:                                     OUT:
          ----                                     ----
                 CHD =           3.8457                   CHD =           1.9228     CHD                              

           TOTAL OUT =           3.8457             TOTAL OUT =           1.9228

            IN - OUT =      -4.6723E-04              IN - OUT =      -1.3989E-05

 PERCENT DISCREPANCY =          -0.01     PERCENT DISCREPANCY =          -0.00




         TIME SUMMARY AT END OF TIME STEP    1 IN STRESS PERIOD    2
                    SECONDS     MINUTES      HOURS       DAYS        YEARS
                    -----------------------------------------------------------
   TIME STEP LENGTH  86400.      1440.0      24.000      1.0000     2.73785E-03
 STRESS PERIOD TIME  86400.      1440.0      24.000      1.0000     2.73785E-03
         TOTAL TIME 1.72800E+05  2880.0      48.000      2.0000     5.47570E-03


end timestep


start timestep kper="3" kstp="1" mode="normal"


 OUTPUT CONTROL FOR STRESS PERIOD 3 IS REPEATED USING SETTINGS FROM A PREVIOUS STRESS PERIOD.
 UBDSV1 SAVING     FLOW-JA-FACE ON UNIT   1013 AT TIME STEP      1, STRESS PERIOD      3
 UBDSV06 SAVING              CHD IN MODEL HILLSLOPE        PACKAGE HILLSLOPE       CONNECTED TO MODEL HILLSLOPE        PACKAGE CHD              ON UNIT   1013 AT TIME STEP      1, STRESS PERIOD      3
1
  HEAD IN LAYER   1 AT END OF TIME STEP   1 IN STRESS PERIOD    3
  ---------------------------------------------------------------------------

            1           2           3           4           5           6           7           8           9          10
           11          12          13          14          15          16          17          18          19          20
           21          22          23          24
 ................................................................................................................................................................................................................................................................................................
   1    178.9       178.9       178.9       178.9       178.9       178.9       178.9       178.9       178.9       178.9    
        178.9       178.9       178.9       178.9       178.9       178.9       178.9       178.9       178.9       178.9    
        178.9       178.9       178.9       178.9    
   2    178.9       178.9       178.9       178.9       178.9       178.9       178.9       178.9       178.9       178.9    
        178.9       178.9       178.9       178.9       178.9       178.9       178.9       178.9       178.9       178.9    
        178.9       178.9       178.9       178.9    
   3    178.8       178.8       178.8       178.8       178.8       178.8       178.8       178.8       178.8       178.8    
        178.8       178.8       178.8       178.8       178.8       178.8       178.8       178.8       178.8       178.8    
        178.8       178.8       178.8       178.8    
   4    178.7       178.7       178.7       178.7       178.7       178.7       178.7       178.7       178.7       178.7    
        178.7       178.7       178.7       178.7       178.7       178.7       178.7       178.7       178.7       178.7    
        178.7       178.7       178.7       178.7    
   5    178.6       178.6       178.6       178.6       178.6       178.6       178.6       178.6       178.6       178.6    
        178.6       178.6       178.6       178.6       178.6       178.6       178.6       178.6       178.6       178.6    
        178.6       178.6       178.6       178.6    
   6    178.5       178.5       178.5       178.5       178.5       178.5       178.5       178.5       178.5       178.5    
        178.5       178.5       178.5       178.5       178.5       178.5       178.5       178.5       178.5       178.5    
        178.5       178.5       178.5       178.5    
   7    178.4       178.4       178.4       178.4       178.4       178.4       178.4       178.4       178.4       178.4    
        178.4       178.4       178.4       178.4       178.4       178.4       178.4       178.4       178.4       178.4    
        178.4       178.4       178.4       178.4    
   8    178.3       178.3       178.3       178.3       178.3       178.3       178.3       178.3       178.3       178.3    
        178.3       178.3       178.3       178.3       178.3       178.3       178.3       178.3       178.3       178.3    
        178.3       178.3       178.3       178.3    
   9    178.2       178.2       178.2       178.2       178.2       178.2       178.2       178.2       178.2       178.2    
        178.2       178.2       178.2       178.2       178.2       178.2       178.2       178.2       178.2       178.2    
        178.2       178.2       178.2       178.2    
  10    178.1       178.1       178.1       178.1       178.1       178.1       178.1       178.1       178.1       178.1    
        178.1       178.1       178.1       178.1       178.1       178.1       178.1       178.1       178.1       178.1    
        178.1       178.1       178.1       178.1    
  11    178.0       178.0       178.0       178.0       178.0       178.0       178.0       178.0       178.0       178.0    
        178.0       178.0       178.0       178.0       178.0       178.0       178.0       178.0       178.0       178.0    
        178.0       178.0       178.0       178.0    
  12    177.9       177.9       177.9       177.9       177.9       177.9       177.9       177.9       177.9       177.9    
        177.9       177.9       177.9       177.9       177.9       177.9       177.9       177.9       177.9       177.9    
        177.9       177.9       177.9       177.9    

 HEAD WILL BE SAVED ON UNIT 1014 AT END OF TIME STEP    1, STRESS PERIOD    3


  VOLUME BUDGET FOR ENTIRE MODEL AT END OF TIME STEP    1, STRESS PERIOD   3
  ---------------------------------------------------------------------------------------------------

     CUMULATIVE VOLUME      L**3       RATES FOR THIS TIME STEP      L**3/T          PACKAGE NAME    
     ------------------                 ------------------------                     ----------------

           IN:                                      IN:
           ---                                      ---
                 CHD =           5.7680                   CHD =           1.9228     CHD                              

            TOTAL IN =           5.7680              TOTAL IN =           1.9228

          OUT:                                     OUT:
          ----                                     ----
                 CHD =           5.7684                   CHD =           1.9227     CHD                              

           TOTAL OUT =           5.7684             TOTAL OUT =           1.9227

            IN - OUT =      -3.8161E-04              IN - OUT =       8.5618E-05

 PERCENT DISCREPANCY =          -0.01     PERCENT DISCREPANCY =           0.00




         TIME SUMMARY AT END OF TIME STEP    1 IN STRESS PERIOD    3
                    SECONDS     MINUTES      HOURS       DAYS        YEARS
                    -----------------------------------------------------------
   TIME STEP LENGTH  86400.      1440.0      24.000      1.0000     2.73785E-03
 STRESS PERIOD TIME  86400.      1440.0      24.000      1.0000     2.73785E-03
         TOTAL TIME 2.59200E+05  4320.0      72.000      3.0000     8.21355E-03


end timestep


start timestep kper="4" kstp="1" mode="normal"


 OUTPUT CONTROL FOR STRESS PERIOD 4 IS REPEATED USING SETTINGS FROM A PREVIOUS STRESS PERIOD.
 UBDSV1 SAVING     FLOW-JA-FACE ON UNIT   1013 AT TIME STEP      1, STRESS PERIOD      4
 UBDSV06 SAVING              CHD IN MODEL HILLSLOPE        PACKAGE HILLSLOPE       CONNECTED TO MODEL HILLSLOPE        PACKAGE CHD              ON UNIT   1013 AT TIME STEP      1, STRESS PERIOD      4
1
  HEAD IN LAYER   1 AT END OF TIME STEP   1 IN STRESS PERIOD    4
  ---------------------------------------------------------------------------

            1           2           3           4           5           6           7           8           9          10
           11          12          13          14          15          16          17          18          19          20
           21          22          23          24
 ................................................................................................................................................................................................................................................................................................
   1    178.9       178.9       178.9       178.9       178.9       178.9       178.9       178.9       178.9       178.9    
        178.9       178.9       178.9       178.9       178.9       178.9       178.9       178.9       178.9       178.9    
        178.9       178.9       178.9       178.9    
   2    178.9       178.9       178.9       178.9       178.9       178.9       178.9       178.9       178.9       178.9    
        178.9       178.9       178.9       178.9       178.9       178.9       178.9       178.9       178.9       178.9    
        178.9       178.9       178.9       178.9    
   3    178.8       178.8       178.8       178.8       178.8       178.8       178.8       178.8       178.8       178.8    
        178.8       178.8       178.8       178.8       178.8       178.8       178.8       178.8       178.8       178.8    
        178.8       178.8       178.8       178.8    
   4    178.7       178.7       178.7       178.7       178.7       178.7       178.7       178.7       178.7       178.7    
        178.7       178.7       178.7       178.7       178.7       178.7       178.7       178.7       178.7       178.7    
        178.7       178.7       178.7       178.7    
   5    178.6       178.6       178.6       178.6       178.6       178.6       178.6       178.6       178.6       178.6    
        178.6       178.6       178.6       178.6       178.6       178.6       178.6       178.6       178.6       178.6    
        178.6       178.6       178.6       178.6    
   6    178.5       178.5       178.5       178.5       178.5       178.5       178.5       178.5       178.5       178.5    
        178.5       178.5       178.5       178.5       178.5       178.5       178.5       178.5       178.5       178.5    
        178.5       178.5       178.5       178.5    
   7    178.4       178.4       178.4       178.4       178.4       178.4       178.4       178.4       178.4       178.4    
        178.4       178.4       178.4       178.4       178.4       178.4       178.4       178.4       178.4       178.4    
        178.4       178.4       178.4       178.4    
   8    178.3       178.3       178.3       178.3       178.3       178.3       178.3       178.3       178.3       178.3    
        178.3       178.3       178.3       178.3       178.3       178.3       178.3       178.3       178.3       178.3    
        178.3       178.3       178.3       178.3    
   9    178.2       178.2       178.2       178.2       178.2       178.2       178.2       178.2       178.2       178.2    
        178.2       178.2       178.2       178.2       178.2       178.2       178.2       178.2       178.2       178.2    
        178.2       178.2       178.2       178.2    
  10    178.1       178.1       178.1       178.1       178.1       178.1       178.1       178.1       178.1       178.1    
        178.1       178.1       178.1       178.1       178.1       178.1       178.1       178.1       178.1       178.1    
        178.1       178.1       178.1       178.1    
  11    178.0       178.0       178.0       178.0       178.0       178.0       178.0       178.0       178.0       178.0    
        178.0       178.0       178.0       178.0       178.0       178.0       178.0       178.0       178.0       178.0    
        178.0       178.0       178.0       178.0    
  12    177.9       177.9       177.9       177.9       177.9       177.9       177.9       177.9       177.9       177.9    
        177.9       177.9       177.9       177.9       177.9       177.9       177.9       177.9       177.9       177.9    
        177.9       177.9       177.9       177.9    

 HEAD WILL BE SAVED ON UNIT 1014 AT END OF TIME STEP    1, STRESS PERIOD    4


  VOLUME BUDGET FOR ENTIRE MODEL AT END OF TIME STEP    1, STRESS PERIOD   4
  ---------------------------------------------------------------------------------------------------

     CUMULATIVE VOLUME      L**3       RATES FOR THIS TIME STEP      L**3/T          PACKAGE NAME    
     ------------------                 ------------------------                     ----------------

           IN:                                      IN:
           ---                                      ---
                 CHD =           7.6908                   CHD =           1.9228     CHD                              

            TOTAL IN =           7.6908              TOTAL IN =           1.9228

          OUT:                                     OUT:
          ----                                     ----
                 CHD =           7.6911                   CHD =           1.9227     CHD                              

           TOTAL OUT =           7.6911             TOTAL OUT =           1.9227

            IN - OUT =      -2.8773E-04              IN - OUT =       9.3887E-05

 PERCENT DISCREPANCY =          -0.00     PERCENT DISCREPANCY =           0.00




         TIME SUMMARY AT END OF TIME STEP    1 IN STRESS PERIOD    4
                    SECONDS     MINUTES      HOURS       DAYS        YEARS
                    -----------------------------------------------------------
   TIME STEP LENGTH  86400.      1440.0      24.000      1.0000     2.73785E-03
 STRESS PERIOD TIME  86400.      1440.0      24.000      1.0000     2.73785E-03
         TOTAL TIME 3.45600E+05  5760.0      96.000      4.0000     1.09514E-02


end timestep


start timestep kper="5" kstp="1" mode="normal"


 OUTPUT CONTROL FOR STRESS PERIOD 5 IS REPEATED USING SETTINGS FROM A PREVIOUS STRESS PERIOD.
 UBDSV1 SAVING     FLOW-JA-FACE ON UNIT   1013 AT TIME STEP      1, STRESS PERIOD      5
 UBDSV06 SAVING              CHD IN MODEL HILLSLOPE        PACKAGE HILLSLOPE       CONNECTED TO MODEL HILLSLOPE        PACKAGE CHD              ON UNIT   1013 AT TIME STEP      1, STRESS PERIOD      5
1
  HEAD IN LAYER   1 AT END OF TIME STEP   1 IN STRESS PERIOD    5
  ---------------------------------------------------------------------------

            1           2           3           4           5           6           7           8           9          10
           11          12          13          14          15          16          17          18          19          20
           21          22          23          24
 ................................................................................................................................................................................................................................................................................................
   1    178.9       178.9       178.9       178.9       178.9       178.9       178.9       178.9       178.9       178.9    
        178.9       178.9       178.9       178.9       178.9       178.9       178.9       178.9       178.9       178.9    
        178.9       178.9       178.9       178.9    
   2    178.9       178.9       178.9       178.9       178.9       178.9       178.9       178.9       178.9       178.9    
        178.9       178.9       178.9       178.9       178.9       178.9       178.9       178.9       178.9       178.9    
        178.9       178.9       178.9       178.9    
   3    178.8       178.8       178.8       178.8       178.8       178.8       178.8       178.8       178.8       178.8    
        178.8       178.8       178.8       178.8       178.8       178.8       178.8       178.8       178.8       178.8    
        178.8       178.8       178.8       178.8    
   4    178.7       178.7       178.7       178.7       178.7       178.7       178.7       178.7       178.7       178.7    
        178.7       178.7       178.7       178.7       178.7       178.7       178.7       178.7       178.7       178.7    
        178.7       178.7       178.7       178.7    
   5    178.6       178.6       178.6       178.6       178.6       178.6       178.6       178.6       178.6       178.6    
        178.6       178.6       178.6       178.6       178.6       178.6       178.6       178.6       178.6       178.6    
        178.6       178.6       178.6       178.6    
   6    178.5       178.5       178.5       178.5       178.5       178.5       178.5       178.5       178.5       178.5    
        178.5       178.5       178.5       178.5       178.5       178.5       178.5       178.5       178.5       178.5    
        178.5       178.5       178.5       178.5    
   7    178.4       178.4       178.4       178.4       178.4       178.4       178.4       178.4       178.4       178.4    
        178.4       178.4       178.4       178.4       178.4       178.4       178.4       178.4       178.4       178.4    
        178.4       178.4       178.4       178.4    
   8    178.3       178.3       178.3       178.3       178.3       178.3       178.3       178.3       178.3       178.3    
        178.3       178.3       178.3       178.3       178.3       178.3       178.3       178.3       178.3       178.3    
        178.3       178.3       178.3       178.3    
   9    178.2       178.2       178.2       178.2       178.2       178.2       178.2       178.2       178.2       178.2    
        178.2       178.2       178.2       178.2       178.2       178.2       178.2       178.2       178.2       178.2    
        178.2       178.2       178.2       178.2    
  10    178.1       178.1       178.1       178.1       178.1       178.1       178.1       178.1       178.1       178.1    
        178.1       178.1       178.1       178.1       178.1       178.1       178.1       178.1       178.1       178.1    
        178.1       178.1       178.1       178.1    
  11    178.0       178.0       178.0       178.0       178.0       178.0       178.0       178.0       178.0       178.0    
        178.0       178.0       178.0       178.0       178.0       178.0       178.0       178.0       178.0       178.0    
        178.0       178.0       178.0       178.0    
  12    177.9       177.9       177.9       177.9       177.9       177.9       177.9       177.9       177.9       177.9    
        177.9       177.9       177.9       177.9       177.9       177.9       177.9       177.9       177.9       177.9    
        177.9       177.9       177.9       177.9    

 HEAD WILL BE SAVED ON UNIT 1014 AT END OF TIME STEP    1, STRESS PERIOD    5


  VOLUME BUDGET FOR ENTIRE MODEL AT END OF TIME STEP    1, STRESS PERIOD   5
  ---------------------------------------------------------------------------------------------------

     CUMULATIVE VOLUME      L**3       RATES FOR THIS TIME STEP      L**3/T          PACKAGE NAME    
     ------------------                 ------------------------                     ----------------

           IN:                                      IN:
           ---                                      ---
                 CHD =           9.6136                   CHD =           1.9228     CHD                              

            TOTAL IN =           9.6136              TOTAL IN =           1.9228

          OUT:                                     OUT:
          ----                                     ----
                 CHD =           9.6137                   CHD =           1.9226     CHD                              

           TOTAL OUT =           9.6137             TOTAL OUT =           1.9226

            IN - OUT =      -1.4857E-04              IN - OUT =       1.3916E-04

 PERCENT DISCREPANCY =          -0.00     PERCENT DISCREPANCY =           0.01




         TIME SUMMARY AT END OF TIME STEP    1 IN STRESS PERIOD    5
                    SECONDS     MINUTES      HOURS       DAYS        YEARS
                    -----------------------------------------------------------
   TIME STEP LENGTH  86400.      1440.0      24.000      1.0000     2.73785E-03
 STRESS PERIOD TIME  86400.      1440.0      24.000      1.0000     2.73785E-03
         TOTAL TIME 4.32000E+05  7200.0      120.00      5.0000     1.36893E-02


end timestep


start timestep kper="6" kstp="1" mode="normal"


 OUTPUT CONTROL FOR STRESS PERIOD 6 IS REPEATED USING SETTINGS FROM A PREVIOUS STRESS PERIOD.
 UBDSV1 SAVING     FLOW-JA-FACE ON UNIT   1013 AT TIME STEP      1, STRESS PERIOD      6
 UBDSV06 SAVING              CHD IN MODEL HILLSLOPE        PACKAGE HILLSLOPE       CONNECTED TO MODEL HILLSLOPE        PACKAGE CHD              ON UNIT   1013 AT TIME STEP      1, STRESS PERIOD      6
1
  HEAD IN LAYER   1 AT END OF TIME STEP   1 IN STRESS PERIOD    6
  ---------------------------------------------------------------------------

            1           2           3           4           5           6           7           8           9          10
           11          12          13          14          15          16          17          18          19          20
           21          22          23          24
 ................................................................................................................................................................................................................................................................................................
   1    178.9       178.9       178.9       178.9       178.9       178.9       178.9       178.9       178.9       178.9    
        178.9       178.9       178.9       178.9       178.9       178.9       178.9       178.9       178.9       178.9    
        178.9       178.9       178.9       178.9    
   2    178.9       178.9       178.9       178.9       178.9       178.9       178.9       178.9       178.9       178.9    
        178.9       178.9       178.9       178.9       178.9       178.9       178.9       178.9       178.9       178.9    
        178.9       178.9       178.9       178.9    
   3    178.8       178.8       178.8       178.8       178.8       178.8       178.8       178.8       178.8       178.8    
        178.8       178.8       178.8       178.8       178.8       178.8       178.8       178.8       178.8       178.8    
        178.8       178.8       178.8       178.8    
   4    178.7       178.7       178.7       178.7       178.7       178.7       178.7       178.7       178.7       178.7    
        178.7       178.7       178.7       178.7       178.7       178.7       178.7       178.7       178.7       178.7    
        178.7       178.7       178.7       178.7    
   5    178.6       178.6       178.6       178.6       178.6       178.6       178.6       178.6       178.6       178.6    
        178.6       178.6       178.6       178.6       178.6       178.6       178.6       178.6       178.6       178.6    
        178.6       178.6       178.6       178.6    
   6    178.5       178.5       178.5       178.5       178.5       178.5       178.5       178.5       178.5       178.5    
        178.5       178.5       178.5       178.5       178.5       178.5       178.5       178.5       178.5       178.5    
        178.5       178.5       178.5       178.5    
   7    178.4       178.4       178.4       178.4       178.4       178.4       178.4       178.4       178.4       178.4    
        178.4       178.4       178.4       178.4       178.4       178.4       178.4       178.4       178.4       178.4    
        178.4       178.4       178.4       178.4    
   8    178.3       178.3       178.3       178.3       178.3       178.3       178.3       178.3       178.3       178.3    
        178.3       178.3       178.3       178.3       178.3       178.3       178.3       178.3       178.3       178.3    
        178.3       178.3       178.3       178.3    
   9    178.2       178.2       178.2       178.2       178.2       178.2       178.2       178.2       178.2       178.2    
        178.2       178.2       178.2       178.2       178.2       178.2       178.2       178.2       178.2       178.2    
        178.2       178.2       178.2       178.2    
  10    178.1       178.1       178.1       178.1       178.1       178.1       178.1       178.1       178.1       178.1    
        178.1       178.1       178.1       178.1       178.1       178.1       178.1       178.1       178.1       178.1    
        178.1       178.1       178.1       178.1    
  11    178.0       178.0       178.0       178.0       178.0       178.0       178.0       178.0       178.0       178.0    
        178.0       178.0       178.0       178.0       178.0       178.0       178.0       178.0       178.0       178.0    
        178.0       178.0       178.0       178.0    
  12    177.9       177.9       177.9       177.9       177.9       177.9       177.9       177.9       177.9       177.9    
        177.9       177.9       177.9       177.9       177.9       177.9       177.9       177.9       177.9       177.9    
        177.9       177.9       177.9       177.9    

 HEAD WILL BE SAVED ON UNIT 1014 AT END OF TIME STEP    1, STRESS PERIOD    6


  VOLUME BUDGET FOR ENTIRE MODEL AT END OF TIME STEP    1, STRESS PERIOD   6
  ---------------------------------------------------------------------------------------------------

     CUMULATIVE VOLUME      L**3       RATES FOR THIS TIME STEP      L**3/T          PACKAGE NAME    
     ------------------                 ------------------------                     ----------------

           IN:                                      IN:
           ---                                      ---
                 CHD =          11.5364                   CHD =           1.9228     CHD                              

            TOTAL IN =          11.5364              TOTAL IN =           1.9228

          OUT:                                     OUT:
          ----                                     ----
                 CHD =          11.5364                   CHD =           1.9227     CHD                              

           TOTAL OUT =          11.5364             TOTAL OUT =           1.9227

            IN - OUT =      -4.6932E-05              IN - OUT =       1.0163E-04

 PERCENT DISCREPANCY =          -0.00     PERCENT DISCREPANCY =           0.01




         TIME SUMMARY AT END OF TIME STEP    1 IN STRESS PERIOD    6
                    SECONDS     MINUTES      HOURS       DAYS        YEARS
                    -----------------------------------------------------------
   TIME STEP LENGTH  86400.      1440.0      24.000      1.0000     2.73785E-03
 STRESS PERIOD TIME  86400.      1440.0      24.000      1.0000     2.73785E-03
         TOTAL TIME 5.18400E+05  8640.0      144.00      6.0000     1.64271E-02


end timestep


start timestep kper="7" kstp="1" mode="normal"


 OUTPUT CONTROL FOR STRESS PERIOD 7 IS REPEATED USING SETTINGS FROM A PREVIOUS STRESS PERIOD.
 UBDSV1 SAVING     FLOW-JA-FACE ON UNIT   1013 AT TIME STEP      1, STRESS PERIOD      7
 UBDSV06 SAVING              CHD IN MODEL HILLSLOPE        PACKAGE HILLSLOPE       CONNECTED TO MODEL HILLSLOPE        PACKAGE CHD              ON UNIT   1013 AT TIME STEP      1, STRESS PERIOD      7
1
  HEAD IN LAYER   1 AT END OF TIME STEP   1 IN STRESS PERIOD    7
  ---------------------------------------------------------------------------

            1           2           3           4           5           6           7           8           9          10
           11          12          13          14          15          16          17          18          19          20
           21          22          23          24
 ................................................................................................................................................................................................................................................................................................
   1    178.9       178.9       178.9       178.9       178.9       178.9       178.9       178.9       178.9       178.9    
        178.9       178.9       178.9       178.9       178.9       178.9       178.9       178.9       178.9       178.9    
        178.9       178.9       178.9       178.9    
   2    178.9       178.9       178.9       178.9       178.9       178.9       178.9       178.9       178.9       178.9    
        178.9       178.9       178.9       178.9       178.9       178.9       178.9       178.9       178.9       178.9    
        178.9       178.9       178.9       178.9    
   3    178.8       178.8       178.8       178.8       178.8       178.8       178.8       178.8       178.8       178.8    
        178.8       178.8       178.8       178.8       178.8       178.8       178.8       178.8       178.8       178.8    
        178.8       178.8       178.8       178.8    
   4    178.7       178.7       178.7       178.7       178.7       178.7       178.7       178.7       178.7       178.7    
        178.7       178.7       178.7       178.7       178.7       178.7       178.7       178.7       178.7       178.7    
        178.7       178.7       178.7       178.7    
   5    178.6       178.6       178.6       178.6       178.6       178.6       178.6       178.6       178.6       178.6    
        178.6       178.6       178.6       178.6       178.6       178.6       178.6       178.6       178.6       178.6    
        178.6       178.6       178.6       178.6    
   6    178.5       178.5       178.5       178.5       178.5       178.5       178.5       178.5       178.5       178.5    
        178.5       178.5       178.5       178.5       178.5       178.5       178.5       178.5       178.5       178.5    
        178.5       178.5       178.5       178.5    
   7    178.4       178.4       178.4       178.4       178.4       178.4       178.4       178.4       178.4       178.4    
        178.4       178.4       178.4       178.4       178.4       178.4       178.4       178.4       178.4       178.4    
        178.4       178.4       178.4       178.4    
   8    178.3       178.3       178.3       178.3       178.3       178.3       178.3       178.3       178.3       178.3    
        178.3       178.3       178.3       178.3       178.3       178.3       178.3       178.3       178.3       178.3    
        178.3       178.3       178.3       178.3    
   9    178.2       178.2       178.2       178.2       178.2       178.2       178.2       178.2       178.2       178.2    
        178.2       178.2       178.2       178.2       178.2       178.2       178.2       178.2       178.2       178.2    
        178.2       178.2       178.2       178.2    
  10    178.1       178.1       178.1       178.1       178.1       178.1       178.1       178.1       178.1       178.1    
        178.1       178.1       178.1       178.1       178.1       178.1       178.1       178.1       178.1       178.1    
        178.1       178.1       178.1       178.1    
  11    178.0       178.0       178.0       178.0       178.0       178.0       178.0       178.0       178.0       178.0    
        178.0       178.0       178.0       178.0       178.0       178.0       178.0       178.0       178.0       178.0    
        178.0       178.0       178.0       178.0    
  12    177.9       177.9       177.9       177.9       177.9       177.9       177.9       177.9       177.9       177.9    
        177.9       177.9       177.9       177.9       177.9       177.9       177.9       177.9       177.9       177.9    
        177.9       177.9       177.9       177.9    

 HEAD WILL BE SAVED ON UNIT 1014 AT END OF TIME STEP    1, STRESS PERIOD    7


  VOLUME BUDGET FOR ENTIRE MODEL AT END OF TIME STEP    1, STRESS PERIOD   7
  ---------------------------------------------------------------------------------------------------

     CUMULATIVE VOLUME      L**3       RATES FOR THIS TIME STEP      L**3/T          PACKAGE NAME    
     ------------------                 ------------------------                     ----------------

           IN:                                      IN:
           ---                                      ---
                 CHD =          13.4591                   CHD =           1.9228     CHD                              

            TOTAL IN =          13.4591              TOTAL IN =           1.9228

          OUT:                                     OUT:
          ----                                     ----
                 CHD =          13.4591                   CHD =           1.9227     CHD                              

           TOTAL OUT =          13.4591             TOTAL OUT =           1.9227

            IN - OUT =       5.9621E-05              IN - OUT =       1.0655E-04

 PERCENT DISCREPANCY =           0.00     PERCENT DISCREPANCY =           0.01




         TIME SUMMARY AT END OF TIME STEP    1 IN STRESS PERIOD    7
                    SECONDS     MINUTES      HOURS       DAYS        YEARS
                    -----------------------------------------------------------
   TIME STEP LENGTH  86400.      1440.0      24.000      1.0000     2.73785E-03
 STRESS PERIOD TIME  86400.      1440.0      24.000      1.0000     2.73785E-03
         TOTAL TIME 6.04800E+05  10080.      168.00      7.0000     1.91650E-02


end timestep


start timestep kper="8" kstp="1" mode="normal"


 OUTPUT CONTROL FOR STRESS PERIOD 8 IS REPEATED USING SETTINGS FROM A PREVIOUS STRESS PERIOD.
 UBDSV1 SAVING     FLOW-JA-FACE ON UNIT   1013 AT TIME STEP      1, STRESS PERIOD      8
 UBDSV06 SAVING              CHD IN MODEL HILLSLOPE        PACKAGE HILLSLOPE       CONNECTED TO MODEL HILLSLOPE        PACKAGE CHD              ON UNIT   1013 AT TIME STEP      1, STRESS PERIOD      8
1
  HEAD IN LAYER   1 AT END OF TIME STEP   1 IN STRESS PERIOD    8
  ---------------------------------------------------------------------------

            1           2           3           4           5           6           7           8           9          10
           11          12          13          14          15          16          17          18          19          20
           21          22          23          24
 ................................................................................................................................................................................................................................................................................................
   1    178.9       178.9       178.9       178.9       178.9       178.9       178.9       178.9       178.9       178.9    
        178.9       178.9       178.9       178.9       178.9       178.9       178.9       178.9       178.9       178.9    
        178.9       178.9       178.9       178.9    
   2    178.9       178.9       178.9       178.9       178.9       178.9       178.9       178.9       178.9       178.9    
        178.9       178.9       178.9       178.9       178.9       178.9       178.9       178.9       178.9       178.9    
        178.9       178.9       178.9       178.9    
   3    178.8       178.8       178.8       178.8       178.8       178.8       178.8       178.8       178.8       178.8    
        178.8       178.8       178.8       178.8       178.8       178.8       178.8       178.8       178.8       178.8    
        178.8       178.8       178.8       178.8    
   4    178.7       178.7       178.7       178.7       178.7       178.7       178.7       178.7       178.7       178.7    
        178.7       178.7       178.7       178.7       178.7       178.7       178.7       178.7       178.7       178.7    
        178.7       178.7       178.7       178.7    
   5    178.6       178.6       178.6       178.6       178.6       178.6       178.6       178.6       178.6       178.6    
        178.6       178.6       178.6       178.6       178.6       178.6       178.6       178.6       178.6       178.6    
        178.6       178.6       178.6       178.6    
   6    178.5       178.5       178.5       178.5       178.5       178.5       178.5       178.5       178.5       178.5    
        178.5       178.5       178.5       178.5       178.5       178.5       178.5       178.5       178.5       178.5    
        178.5       178.5       178.5       178.5    
   7    178.4       178.4       178.4       178.4       178.4       178.4       178.4       178.4       178.4       178.4    
        178.4       178.4       178.4       178.4       178.4       178.4       178.4       178.4       178.4       178.4    
        178.4       178.4       178.4       178.4    
   8    178.3       178.3       178.3       178.3       178.3       178.3       178.3       178.3       178.3       178.3    
        178.3       178.3       178.3       178.3       178.3       178.3       178.3       178.3       178.3       178.3    
        178.3       178.3       178.3       178.3    
   9    178.2       178.2       178.2       178.2       178.2       178.2       178.2       178.2       178.2       178.2    
        178.2       178.2       178.2       178.2       178.2       178.2       178.2       178.2       178.2       178.2    
        178.2       178.2       178.2       178.2    
  10    178.1       178.1       178.1       178.1       178.1       178.1       178.1       178.1       178.1       178.1    
        178.1       178.1       178.1       178.1       178.1       178.1       178.1       178.1       178.1       178.1    
        178.1       178.1       178.1       178.1    
  11    178.0       178.0       178.0       178.0       178.0       178.0       178.0       178.0       178.0       178.0    
        178.0       178.0       178.0       178.0       178.0       178.0       178.0       178.0       178.0       178.0    
        178.0       178.0       178.0       178.0    
  12    177.9       177.9       177.9       177.9       177.9       177.9       177.9       177.9       177.9       177.9    
        177.9       177.9       177.9       177.9       177.9       177.9       177.9       177.9       177.9       177.9    
        177.9       177.9       177.9       177.9    

 HEAD WILL BE SAVED ON UNIT 1014 AT END OF TIME STEP    1, STRESS PERIOD    8


  VOLUME BUDGET FOR ENTIRE MODEL AT END OF TIME STEP    1, STRESS PERIOD   8
  ---------------------------------------------------------------------------------------------------

     CUMULATIVE VOLUME      L**3       RATES FOR THIS TIME STEP      L**3/T          PACKAGE NAME    
     ------------------                 ------------------------                     ----------------

           IN:                                      IN:
           ---                                      ---
                 CHD =          15.3819                   CHD =           1.9228     CHD                              

            TOTAL IN =          15.3819              TOTAL IN =           1.9228

          OUT:                                     OUT:
          ----                                     ----
                 CHD =          15.3817                   CHD =           1.9227     CHD                              

           TOTAL OUT =          15.3817             TOTAL OUT =           1.9227

            IN - OUT =       1.3445E-04              IN - OUT =       7.4831E-05

 PERCENT DISCREPANCY =           0.00     PERCENT DISCREPANCY =           0.00




         TIME SUMMARY AT END OF TIME STEP    1 IN STRESS PERIOD    8
                    SECONDS     MINUTES      HOURS       DAYS        YEARS
                    -----------------------------------------------------------
   TIME STEP LENGTH  86400.      1440.0      24.000      1.0000     2.73785E-03
 STRESS PERIOD TIME  86400.      1440.0      24.000      1.0000     2.73785E-03
         TOTAL TIME 6.91200E+05  11520.      192.00      8.0000     2.19028E-02


end timestep


start timestep kper="9" kstp="1" mode="normal"


 OUTPUT CONTROL FOR STRESS PERIOD 9 IS REPEATED USING SETTINGS FROM A PREVIOUS STRESS PERIOD.
 UBDSV1 SAVING     FLOW-JA-FACE ON UNIT   1013 AT TIME STEP      1, STRESS PERIOD      9
 UBDSV06 SAVING              CHD IN MODEL HILLSLOPE        PACKAGE HILLSLOPE       CONNECTED TO MODEL HILLSLOPE        PACKAGE CHD              ON UNIT   1013 AT TIME STEP      1, STRESS PERIOD      9
1
  HEAD IN LAYER   1 AT END OF TIME STEP   1 IN STRESS PERIOD    9
  ---------------------------------------------------------------------------

            1           2           3           4           5           6           7           8           9          10
           11          12          13          14          15          16          17          18          19          20
           21          22          23          24
 ................................................................................................................................................................................................................................................................................................
   1    178.9       178.9       178.9       178.9       178.9       178.9       178.9       178.9       178.9       178.9    
        178.9       178.9       178.9       178.9       178.9       178.9       178.9       178.9       178.9       178.9    
        178.9       178.9       178.9       178.9    
   2    178.9       178.9       178.9       178.9       178.9       178.9       178.9       178.9       178.9       178.9    
        178.9       178.9       178.9       178.9       178.9       178.9       178.9       178.9       178.9       178.9    
        178.9       178.9       178.9       178.9    
   3    178.8       178.8       178.8       178.8       178.8       178.8       178.8       178.8       178.8       178.8    
        178.8       178.8       178.8       178.8       178.8       178.8       178.8       178.8       178.8       178.8    
        178.8       178.8       178.8       178.8    
   4    178.7       178.7       178.7       178.7       178.7       178.7       178.7       178.7       178.7       178.7    
        178.7       178.7       178.7       178.7       178.7       178.7       178.7       178.7       178.7       178.7    
        178.7       178.7       178.7       178.7    
   5    178.6       178.6       178.6       178.6       178.6       178.6       178.6       178.6       178.6       178.6    
        178.6       178.6       178.6       178.6       178.6       178.6       178.6       178.6       178.6       178.6    
        178.6       178.6       178.6       178.6    
   6    178.5       178.5       178.5       178.5       178.5       178.5       178.5       178.5       178.5       178.5    
        178.5       178.5       178.5       178.5       178.5       178.5       178.5       178.5       178.5       178.5    
        178.5       178.5       178.5       178.5    
   7    178.4       178.4       178.4       178.4       178.4       178.4       178.4       178.4       178.4       178.4    
        178.4       178.4       178.4       178.4       178.4       178.4       178.4       178.4       178.4       178.4    
        178.4       178.4       178.4       178.4    
   8    178.3       178.3       178.3       178.3       178.3       178.3       178.3       178.3       178.3       178.3    
        178.3       178.3       178.3       178.3       178.3       178.3       178.3       178.3       178.3       178.3    
        178.3       178.3       178.3       178.3    
   9    178.2       178.2       178.2       178.2       178.2       178.2       178.2       178.2       178.2       178.2    
        178.2       178.2       178.2       178.2       178.2       178.2       178.2       178.2       178.2       178.2    
        178.2       178.2       178.2       178.2    
  10    178.1       178.1       178.1       178.1       178.1       178.1       178.1       178.1       178.1       178.1    
        178.1       178.1       178.1       178.1       178.1       178.1       178.1       178.1       178.1       178.1    
        178.1       178.1       178.1       178.1    
  11    178.0       178.0       178.0       178.0       178.0       178.0       178.0       178.0       178.0       178.0    
        178.0       178.0       178.0       178.0       178.0       178.0       178.0       178.0       178.0       178.0    
        178.0       178.0       178.0       178.0    
  12    177.9       177.9       177.9       177.9       177.9       177.9       177.9       177.9       177.9       177.9    
        177.9       177.9       177.9       177.9       177.9       177.9       177.9       177.9       177.9       177.9    
        177.9       177.9       177.9       177.9    

 HEAD WILL BE SAVED ON UNIT 1014 AT END OF TIME STEP    1, STRESS PERIOD    9


  VOLUME BUDGET FOR ENTIRE MODEL AT END OF TIME STEP    1, STRESS PERIOD   9
  ---------------------------------------------------------------------------------------------------

     CUMULATIVE VOLUME      L**3       RATES FOR THIS TIME STEP      L**3/T          PACKAGE NAME    
     ------------------                 ------------------------                     ----------------

           IN:                                      IN:
           ---                                      ---
                 CHD =          17.3046                   CHD =           1.9228     CHD                              

            TOTAL IN =          17.3046              TOTAL IN =           1.9228

          OUT:                                     OUT:
          ----                                     ----
                 CHD =          17.3044                   CHD =           1.9227     CHD                              

           TOTAL OUT =          17.3044             TOTAL OUT =           1.9227

            IN - OUT =       2.0401E-04              IN - OUT =       6.9561E-05

 PERCENT DISCREPANCY =           0.00     PERCENT DISCREPANCY =           0.00




         TIME SUMMARY AT END OF TIME STEP    1 IN STRESS PERIOD    9
                    SECONDS     MINUTES      HOURS       DAYS        YEARS
                    -----------------------------------------------------------
   TIME STEP LENGTH  86400.      1440.0      24.000      1.0000     2.73785E-03
 STRESS PERIOD TIME  86400.      1440.0      24.000      1.0000     2.73785E-03
         TOTAL TIME 7.77600E+05  12960.      216.00      9.0000     2.46407E-02


end timestep


start timestep kper="10" kstp="1" mode="normal"


 OUTPUT CONTROL FOR STRESS PERIOD 10 IS REPEATED USING SETTINGS FROM A PREVIOUS STRESS PERIOD.
 UBDSV1 SAVING     FLOW-JA-FACE ON UNIT   1013 AT TIME STEP      1, STRESS PERIOD     10
 UBDSV06 SAVING              CHD IN MODEL HILLSLOPE        PACKAGE HILLSLOPE       CONNECTED TO MODEL HILLSLOPE        PACKAGE CHD              ON UNIT   1013 AT TIME STEP      1, STRESS PERIOD     10
1
  HEAD IN LAYER   1 AT END OF TIME STEP   1 IN STRESS PERIOD   10
  ---------------------------------------------------------------------------

            1           2           3           4           5           6           7           8           9          10
           11          12          13          14          15          16          17          18          19          20
           21          22          23          24
 ................................................................................................................................................................................................................................................................................................
   1    178.9       178.9       178.9       178.9       178.9       178.9       178.9       178.9       178.9       178.9    
        178.9       178.9       178.9       178.9       178.9       178.9       178.9       178.9       178.9       178.9    
        178.9       178.9       178.9       178.9    
   2    178.9       178.9       178.9       178.9       178.9       178.9       178.9       178.9       178.9       178.9    
        178.9       178.9       178.9       178.9       178.9       178.9       178.9       178.9       178.9       178.9    
        178.9       178.9       178.9       178.9    
   3    178.8       178.8       178.8       178.8       178.8       178.8       178.8       178.8       178.8       178.8    
        178.8       178.8       178.8       178.8       178.8       178.8       178.8       178.8       178.8       178.8    
        178.8       178.8       178.8       178.8    
   4    178.7       178.7       178.7       178.7       178.7       178.7       178.7       178.7       178.7       178.7    
        178.7       178.7       178.7       178.7       178.7       178.7       178.7       178.7       178.7       178.7    
        178.7       178.7       178.7       178.7    
   5    178.6       178.6       178.6       178.6       178.6       178.6       178.6       178.6       178.6       178.6    
        178.6       178.6       178.6       178.6       178.6       178.6       178.6       178.6       178.6       178.6    
        178.6       178.6       178.6       178.6    
   6    178.5       178.5       178.5       178.5       178.5       178.5       178.5       178.5       178.5       178.5    
        178.5       178.5       178.5       178.5       178.5       178.5       178.5       178.5       178.5       178.5    
        178.5       178.5       178.5       178.5    
   7    178.4       178.4       178.4       178.4       178.4       178.4       178.4       178.4       178.4       178.4    
        178.4       178.4       178.4       178.4       178.4       178.4       178.4       178.4       178.4       178.4    
        178.4       178.4       178.4       178.4    
   8    178.3       178.3       178.3       178.3       178.3       178.3       178.3       178.3       178.3       178.3    
        178.3       178.3       178.3       178.3       178.3       178.3       178.3       178.3       178.3       178.3    
        178.3       178.3       178.3       178.3    
   9    178.2       178.2       178.2       178.2       178.2       178.2       178.2       178.2       178.2       178.2    
        178.2       178.2       178.2       178.2       178.2       178.2       178.2       178.2       178.2       178.2    
        178.2       178.2       178.2       178.2    
  10    178.1       178.1       178.1       178.1       178.1       178.1       178.1       178.1       178.1       178.1    
        178.1       178.1       178.1       178.1       178.1       178.1       178.1       178.1       178.1       178.1    
        178.1       178.1       178.1       178.1    
  11    178.0       178.0       178.0       178.0       178.0       178.0       178.0       178.0       178.0       178.0    
        178.0       178.0       178.0       178.0       178.0       178.0       178.0       178.0       178.0       178.0    
        178.0       178.0       178.0       178.0    
  12    177.9       177.9       177.9       177.9       177.9       177.9       177.9       177.9       177.9       177.9    
        177.9       177.9       177.9       177.9       177.9       177.9       177.9       177.9       177.9       177.9    
        177.9       177.9       177.9       177.9    

 HEAD WILL BE SAVED ON UNIT 1014 AT END OF TIME STEP    1, STRESS PERIOD   10


  VOLUME BUDGET FOR ENTIRE MODEL AT END OF TIME STEP    1, STRESS PERIOD  10
  ---------------------------------------------------------------------------------------------------

     CUMULATIVE VOLUME      L**3       RATES FOR THIS TIME STEP      L**3/T          PACKAGE NAME    
     ------------------                 ------------------------                     ----------------

           IN:                                      IN:
           ---                                      ---
                 CHD =          19.2274                   CHD =           1.9227     CHD                              

            TOTAL IN =          19.2274              TOTAL IN =           1.9227

          OUT:                                     OUT:
          ----                                     ----
                 CHD =          19.2271                   CHD =           1.9227     CHD                              

           TOTAL OUT =          19.2271             TOTAL OUT =           1.9227

            IN - OUT =       2.5237E-04              IN - OUT =       4.8351E-05

 PERCENT DISCREPANCY =           0.00     PERCENT DISCREPANCY =           0.00




         TIME SUMMARY AT END OF TIME STEP    1 IN STRESS PERIOD   10
                    SECONDS     MINUTES      HOURS       DAYS        YEARS
                    -----------------------------------------------------------
   TIME STEP LENGTH  86400.      1440.0      24.000      1.0000     2.73785E-03
 STRESS PERIOD TIME  86400.      1440.0      24.000      1.0000     2.73785E-03
         TOTAL TIME 8.64000E+05  14400.      240.00      10.000     2.73785E-02


end timestep


start timestep kper="11" kstp="1" mode="normal"


 OUTPUT CONTROL FOR STRESS PERIOD 11 IS REPEATED USING SETTINGS FROM A PREVIOUS STRESS PERIOD.
 UBDSV1 SAVING     FLOW-JA-FACE ON UNIT   1013 AT TIME STEP      1, STRESS PERIOD     11
 UBDSV06 SAVING              CHD IN MODEL HILLSLOPE        PACKAGE HILLSLOPE       CONNECTED TO MODEL HILLSLOPE        PACKAGE CHD              ON UNIT   1013 AT TIME STEP      1, STRESS PERIOD     11
1
  HEAD IN LAYER   1 AT END OF TIME STEP   1 IN STRESS PERIOD   11
  ---------------------------------------------------------------------------

            1           2           3           4           5           6           7           8           9          10
           11          12          13          14          15          16          17          18          19          20
           21          22          23          24
 ................................................................................................................................................................................................................................................................................................
   1    178.9       178.9       178.9       178.9       178.9       178.9       178.9       178.9       178.9       178.9    
        178.9       178.9       178.9       178.9       178.9       178.9       178.9       178.9       178.9       178.9    
        178.9       178.9       178.9       178.9    
   2    178.9       178.9       178.9       178.9       178.9       178.9       178.9       178.9       178.9       178.9    
        178.9       178.9       178.9       178.9       178.9       178.9       178.9       178.9       178.9       178.9    
        178.9       178.9       178.9       178.9    
   3    178.8       178.8       178.8       178.8       178.8       178.8       178.8       178.8       178.8       178.8    
        178.8       178.8       178.8       178.8       178.8       178.8       178.8       178.8       178.8       178.8    
        178.8       178.8       178.8       178.8    
   4    178.7       178.7       178.7       178.7       178.7       178.7       178.7       178.7       178.7       178.7    
        178.7       178.7       178.7       178.7       178.7       178.7       178.7       178.7       178.7       178.7    
        178.7       178.7       178.7       178.7    
   5    178.6       178.6       178.6       178.6       178.6       178.6       178.6       178.6       178.6       178.6    
        178.6       178.6       178.6       178.6       178.6       178.6       178.6       178.6       178.6       178.6    
        178.6       178.6       178.6       178.6    
   6    178.5       178.5       178.5       178.5       178.5       178.5       178.5       178.5       178.5       178.5    
        178.5       178.5       178.5       178.5       178.5       178.5       178.5       178.5       178.5       178.5    
        178.5       178.5       178.5       178.5    
   7    178.4       178.4       178.4       178.4       178.4       178.4       178.4       178.4       178.4       178.4    
        178.4       178.4       178.4       178.4       178.4       178.4       178.4       178.4       178.4       178.4    
        178.4       178.4       178.4       178.4    
   8    178.3       178.3       178.3       178.3       178.3       178.3       178.3       178.3       178.3       178.3    
        178.3       178.3       178.3       178.3       178.3       178.3       178.3       178.3       178.3       178.3    
        178.3       178.3       178.3       178.3    
   9    178.2       178.2       178.2       178.2       178.2       178.2       178.2       178.2       178.2       178.2    
        178.2       178.2       178.2       178.2       178.2       178.2       178.2       178.2       178.2       178.2    
        178.2       178.2       178.2       178.2    
  10    178.1       178.1       178.1       178.1       178.1       178.1       178.1       178.1       178.1       178.1    
        178.1       178.1       178.1       178.1       178.1       178.1       178.1       178.1       178.1       178.1    
        178.1       178.1       178.1       178.1    
  11    178.0       178.0       178.0       178.0       178.0       178.0       178.0       178.0       178.0       178.0    
        178.0       178.0       178.0       178.0       178.0       178.0       178.0       178.0       178.0       178.0    
        178.0       178.0       178.0       178.0    
  12    177.9       177.9       177.9       177.9       177.9       177.9       177.9       177.9       177.9       177.9    
        177.9       177.9       177.9       177.9       177.9       177.9       177.9       177.9       177.9       177.9    
        177.9       177.9       177.9       177.9    

 HEAD WILL BE SAVED ON UNIT 1014 AT END OF TIME STEP    1, STRESS PERIOD   11


  VOLUME BUDGET FOR ENTIRE MODEL AT END OF TIME STEP    1, STRESS PERIOD  11
  ---------------------------------------------------------------------------------------------------

     CUMULATIVE VOLUME      L**3       RATES FOR THIS TIME STEP      L**3/T          PACKAGE NAME    
     ------------------                 ------------------------                     ----------------

           IN:                                      IN:
           ---                                      ---
                 CHD =          21.1501                   CHD =           1.9227     CHD                              

            TOTAL IN =          21.1501              TOTAL IN =           1.9227

          OUT:                                     OUT:
          ----                                     ----
                 CHD =          21.1498                   CHD =           1.9227     CHD                              

           TOTAL OUT =          21.1498             TOTAL OUT =           1.9227

            IN - OUT =       2.9509E-04              IN - OUT =       4.2725E-05

 PERCENT DISCREPANCY =           0.00     PERCENT DISCREPANCY =           0.00




         TIME SUMMARY AT END OF TIME STEP    1 IN STRESS PERIOD   11
                    SECONDS     MINUTES      HOURS       DAYS        YEARS
                    -----------------------------------------------------------
   TIME STEP LENGTH  86400.      1440.0      24.000      1.0000     2.73785E-03
 STRESS PERIOD TIME  86400.      1440.0      24.000      1.0000     2.73785E-03
         TOTAL TIME 9.50400E+05  15840.      264.00      11.000     3.01164E-02


end timestep


start timestep kper="12" kstp="1" mode="normal"


 OUTPUT CONTROL FOR STRESS PERIOD 12 IS REPEATED USING SETTINGS FROM A PREVIOUS STRESS PERIOD.
 UBDSV1 SAVING     FLOW-JA-FACE ON UNIT   1013 AT TIME STEP      1, STRESS PERIOD     12
 UBDSV06 SAVING              CHD IN MODEL HILLSLOPE        PACKAGE HILLSLOPE       CONNECTED TO MODEL HILLSLOPE        PACKAGE CHD              ON UNIT   1013 AT TIME STEP      1, STRESS PERIOD     12
1
  HEAD IN LAYER   1 AT END OF TIME STEP   1 IN STRESS PERIOD   12
  ---------------------------------------------------------------------------

            1           2           3           4           5           6           7           8           9          10
           11          12          13          14          15          16          17          18          19          20
           21          22          23          24
 ................................................................................................................................................................................................................................................................................................
   1    178.9       178.9       178.9       178.9       178.9       178.9       178.9       178.9       178.9       178.9    
        178.9       178.9       178.9       178.9       178.9       178.9       178.9       178.9       178.9       178.9    
        178.9       178.9       178.9       178.9    
   2    178.9       178.9       178.9       178.9       178.9       178.9       178.9       178.9       178.9       178.9    
[...]
   TIME STEP LENGTH  86400.      1440.0      24.000      1.0000     2.73785E-03
 STRESS PERIOD TIME  86400.      1440.0      24.000      1.0000     2.73785E-03
         TOTAL TIME 3.12768E+07 5.21280E+05  8688.0      362.00     0.99110    


end timestep


start timestep kper="363" kstp="1" mode="normal"


 OUTPUT CONTROL FOR STRESS PERIOD 363 IS REPEATED USING SETTINGS FROM A PREVIOUS STRESS PERIOD.
 UBDSV1 SAVING     FLOW-JA-FACE ON UNIT   1013 AT TIME STEP      1, STRESS PERIOD    363
 UBDSV06 SAVING              CHD IN MODEL HILLSLOPE        PACKAGE HILLSLOPE       CONNECTED TO MODEL HILLSLOPE        PACKAGE CHD              ON UNIT   1013 AT TIME STEP      1, STRESS PERIOD    363
1
  HEAD IN LAYER   1 AT END OF TIME STEP   1 IN STRESS PERIOD  363
  ---------------------------------------------------------------------------

            1           2           3           4           5           6           7           8           9          10
           11          12          13          14          15          16          17          18          19          20
           21          22          23          24
 ................................................................................................................................................................................................................................................................................................
   1    178.9       178.9       178.9       178.9       178.9       178.9       178.9       178.9       178.9       178.9    
        178.9       178.9       178.9       178.9       178.9       178.9       178.9       178.9       178.9       178.9    
        178.9       178.9       178.9       178.9    
   2    178.9       178.9       178.9       178.9       178.9       178.9       178.9       178.9       178.9       178.9    
        178.9       178.9       178.9       178.9       178.9       178.9       178.9       178.9       178.9       178.9    
        178.9       178.9       178.9       178.9    
   3    178.8       178.8       178.8       178.8       178.8       178.8       178.8       178.8       178.8       178.8    
        178.8       178.8       178.8       178.8       178.8       178.8       178.8       178.8       178.8       178.8    
        178.8       178.8       178.8       178.8    
   4    178.7       178.7       178.7       178.7       178.7       178.7       178.7       178.7       178.7       178.7    
        178.7       178.7       178.7       178.7       178.7       178.7       178.7       178.7       178.7       178.7    
        178.7       178.7       178.7       178.7    
   5    178.6       178.6       178.6       178.6       178.6       178.6       178.6       178.6       178.6       178.6    
        178.6       178.6       178.6       178.6       178.6       178.6       178.6       178.6       178.6       178.6    
        178.6       178.6       178.6       178.6    
   6    178.5       178.5       178.5       178.5       178.5       178.5       178.5       178.5       178.5       178.5    
        178.5       178.5       178.5       178.5       178.5       178.5       178.5       178.5       178.5       178.5    
        178.5       178.5       178.5       178.5    
   7    178.4       178.4       178.4       178.4       178.4       178.4       178.4       178.4       178.4       178.4    
        178.4       178.4       178.4       178.4       178.4       178.4       178.4       178.4       178.4       178.4    
        178.4       178.4       178.4       178.4    
   8    178.3       178.3       178.3       178.3       178.3       178.3       178.3       178.3       178.3       178.3    
        178.3       178.3       178.3       178.3       178.3       178.3       178.3       178.3       178.3       178.3    
        178.3       178.3       178.3       178.3    
   9    178.2       178.2       178.2       178.2       178.2       178.2       178.2       178.2       178.2       178.2    
        178.2       178.2       178.2       178.2       178.2       178.2       178.2       178.2       178.2       178.2    
        178.2       178.2       178.2       178.2    
  10    178.1       178.1       178.1       178.1       178.1       178.1       178.1       178.1       178.1       178.1    
        178.1       178.1       178.1       178.1       178.1       178.1       178.1       178.1       178.1       178.1    
        178.1       178.1       178.1       178.1    
  11    178.0       178.0       178.0       178.0       178.0       178.0       178.0       178.0       178.0       178.0    
        178.0       178.0       178.0       178.0       178.0       178.0       178.0       178.0       178.0       178.0    
        178.0       178.0       178.0       178.0    
  12    177.9       177.9       177.9       177.9       177.9       177.9       177.9       177.9       177.9       177.9    
        177.9       177.9       177.9       177.9       177.9       177.9       177.9       177.9       177.9       177.9    
        177.9       177.9       177.9       177.9    

 HEAD WILL BE SAVED ON UNIT 1014 AT END OF TIME STEP    1, STRESS PERIOD  363


  VOLUME BUDGET FOR ENTIRE MODEL AT END OF TIME STEP    1, STRESS PERIOD 363
  ---------------------------------------------------------------------------------------------------

     CUMULATIVE VOLUME      L**3       RATES FOR THIS TIME STEP      L**3/T          PACKAGE NAME    
     ------------------                 ------------------------                     ----------------

           IN:                                      IN:
           ---                                      ---
                 CHD =         697.9490                   CHD =           1.9227     CHD                              

            TOTAL IN =         697.9490              TOTAL IN =           1.9227

          OUT:                                     OUT:
          ----                                     ----
                 CHD =         697.9486                   CHD =           1.9227     CHD                              

           TOTAL OUT =         697.9486             TOTAL OUT =           1.9227

            IN - OUT =       4.3976E-04              IN - OUT =       1.4823E-08

 PERCENT DISCREPANCY =           0.00     PERCENT DISCREPANCY =           0.00




         TIME SUMMARY AT END OF TIME STEP    1 IN STRESS PERIOD  363
                    SECONDS     MINUTES      HOURS       DAYS        YEARS
                    -----------------------------------------------------------
   TIME STEP LENGTH  86400.      1440.0      24.000      1.0000     2.73785E-03
 STRESS PERIOD TIME  86400.      1440.0      24.000      1.0000     2.73785E-03
         TOTAL TIME 3.13632E+07 5.22720E+05  8712.0      363.00     0.99384    


end timestep


start timestep kper="364" kstp="1" mode="normal"


 OUTPUT CONTROL FOR STRESS PERIOD 364 IS REPEATED USING SETTINGS FROM A PREVIOUS STRESS PERIOD.
 UBDSV1 SAVING     FLOW-JA-FACE ON UNIT   1013 AT TIME STEP      1, STRESS PERIOD    364
 UBDSV06 SAVING              CHD IN MODEL HILLSLOPE        PACKAGE HILLSLOPE       CONNECTED TO MODEL HILLSLOPE        PACKAGE CHD              ON UNIT   1013 AT TIME STEP      1, STRESS PERIOD    364
1
  HEAD IN LAYER   1 AT END OF TIME STEP   1 IN STRESS PERIOD  364
  ---------------------------------------------------------------------------

            1           2           3           4           5           6           7           8           9          10
           11          12          13          14          15          16          17          18          19          20
           21          22          23          24
 ................................................................................................................................................................................................................................................................................................
   1    178.9       178.9       178.9       178.9       178.9       178.9       178.9       178.9       178.9       178.9    
        178.9       178.9       178.9       178.9       178.9       178.9       178.9       178.9       178.9       178.9    
        178.9       178.9       178.9       178.9    
   2    178.9       178.9       178.9       178.9       178.9       178.9       178.9       178.9       178.9       178.9    
        178.9       178.9       178.9       178.9       178.9       178.9       178.9       178.9       178.9       178.9    
        178.9       178.9       178.9       178.9    
   3    178.8       178.8       178.8       178.8       178.8       178.8       178.8       178.8       178.8       178.8    
        178.8       178.8       178.8       178.8       178.8       178.8       178.8       178.8       178.8       178.8    
        178.8       178.8       178.8       178.8    
   4    178.7       178.7       178.7       178.7       178.7       178.7       178.7       178.7       178.7       178.7    
        178.7       178.7       178.7       178.7       178.7       178.7       178.7       178.7       178.7       178.7    
        178.7       178.7       178.7       178.7    
   5    178.6       178.6       178.6       178.6       178.6       178.6       178.6       178.6       178.6       178.6    
        178.6       178.6       178.6       178.6       178.6       178.6       178.6       178.6       178.6       178.6    
        178.6       178.6       178.6       178.6    
   6    178.5       178.5       178.5       178.5       178.5       178.5       178.5       178.5       178.5       178.5    
        178.5       178.5       178.5       178.5       178.5       178.5       178.5       178.5       178.5       178.5    
        178.5       178.5       178.5       178.5    
   7    178.4       178.4       178.4       178.4       178.4       178.4       178.4       178.4       178.4       178.4    
        178.4       178.4       178.4       178.4       178.4       178.4       178.4       178.4       178.4       178.4    
        178.4       178.4       178.4       178.4    
   8    178.3       178.3       178.3       178.3       178.3       178.3       178.3       178.3       178.3       178.3    
        178.3       178.3       178.3       178.3       178.3       178.3       178.3       178.3       178.3       178.3    
        178.3       178.3       178.3       178.3    
   9    178.2       178.2       178.2       178.2       178.2       178.2       178.2       178.2       178.2       178.2    
        178.2       178.2       178.2       178.2       178.2       178.2       178.2       178.2       178.2       178.2    
        178.2       178.2       178.2       178.2    
  10    178.1       178.1       178.1       178.1       178.1       178.1       178.1       178.1       178.1       178.1    
        178.1       178.1       178.1       178.1       178.1       178.1       178.1       178.1       178.1       178.1    
        178.1       178.1       178.1       178.1    
  11    178.0       178.0       178.0       178.0       178.0       178.0       178.0       178.0       178.0       178.0    
        178.0       178.0       178.0       178.0       178.0       178.0       178.0       178.0       178.0       178.0    
        178.0       178.0       178.0       178.0    
  12    177.9       177.9       177.9       177.9       177.9       177.9       177.9       177.9       177.9       177.9    
        177.9       177.9       177.9       177.9       177.9       177.9       177.9       177.9       177.9       177.9    
        177.9       177.9       177.9       177.9    

 HEAD WILL BE SAVED ON UNIT 1014 AT END OF TIME STEP    1, STRESS PERIOD  364


  VOLUME BUDGET FOR ENTIRE MODEL AT END OF TIME STEP    1, STRESS PERIOD 364
  ---------------------------------------------------------------------------------------------------

     CUMULATIVE VOLUME      L**3       RATES FOR THIS TIME STEP      L**3/T          PACKAGE NAME    
     ------------------                 ------------------------                     ----------------

           IN:                                      IN:
           ---                                      ---
                 CHD =         699.8718                   CHD =           1.9227     CHD                              

            TOTAL IN =         699.8718              TOTAL IN =           1.9227

          OUT:                                     OUT:
          ----                                     ----
                 CHD =         699.8713                   CHD =           1.9227     CHD                              

           TOTAL OUT =         699.8713             TOTAL OUT =           1.9227

            IN - OUT =       4.3977E-04              IN - OUT =       1.4801E-08

 PERCENT DISCREPANCY =           0.00     PERCENT DISCREPANCY =           0.00




         TIME SUMMARY AT END OF TIME STEP    1 IN STRESS PERIOD  364
                    SECONDS     MINUTES      HOURS       DAYS        YEARS
                    -----------------------------------------------------------
   TIME STEP LENGTH  86400.      1440.0      24.000      1.0000     2.73785E-03
 STRESS PERIOD TIME  86400.      1440.0      24.000      1.0000     2.73785E-03
         TOTAL TIME 3.14496E+07 5.24160E+05  8736.0      364.00     0.99658    


end timestep


start timestep kper="365" kstp="1" mode="normal"


 OUTPUT CONTROL FOR STRESS PERIOD 365 IS REPEATED USING SETTINGS FROM A PREVIOUS STRESS PERIOD.
 UBDSV1 SAVING     FLOW-JA-FACE ON UNIT   1013 AT TIME STEP      1, STRESS PERIOD    365
 UBDSV06 SAVING              CHD IN MODEL HILLSLOPE        PACKAGE HILLSLOPE       CONNECTED TO MODEL HILLSLOPE        PACKAGE CHD              ON UNIT   1013 AT TIME STEP      1, STRESS PERIOD    365
1
  HEAD IN LAYER   1 AT END OF TIME STEP   1 IN STRESS PERIOD  365
  ---------------------------------------------------------------------------

            1           2           3           4           5           6           7           8           9          10
           11          12          13          14          15          16          17          18          19          20
           21          22          23          24
 ................................................................................................................................................................................................................................................................................................
   1    178.9       178.9       178.9       178.9       178.9       178.9       178.9       178.9       178.9       178.9    
        178.9       178.9       178.9       178.9       178.9       178.9       178.9       178.9       178.9       178.9    
        178.9       178.9       178.9       178.9    
   2    178.9       178.9       178.9       178.9       178.9       178.9       178.9       178.9       178.9       178.9    
        178.9       178.9       178.9       178.9       178.9       178.9       178.9       178.9       178.9       178.9    
        178.9       178.9       178.9       178.9    
   3    178.8       178.8       178.8       178.8       178.8       178.8       178.8       178.8       178.8       178.8    
        178.8       178.8       178.8       178.8       178.8       178.8       178.8       178.8       178.8       178.8    
        178.8       178.8       178.8       178.8    
   4    178.7       178.7       178.7       178.7       178.7       178.7       178.7       178.7       178.7       178.7    
        178.7       178.7       178.7       178.7       178.7       178.7       178.7       178.7       178.7       178.7    
        178.7       178.7       178.7       178.7    
   5    178.6       178.6       178.6       178.6       178.6       178.6       178.6       178.6       178.6       178.6    
        178.6       178.6       178.6       178.6       178.6       178.6       178.6       178.6       178.6       178.6    
        178.6       178.6       178.6       178.6    
   6    178.5       178.5       178.5       178.5       178.5       178.5       178.5       178.5       178.5       178.5    
        178.5       178.5       178.5       178.5       178.5       178.5       178.5       178.5       178.5       178.5    
        178.5       178.5       178.5       178.5    
   7    178.4       178.4       178.4       178.4       178.4       178.4       178.4       178.4       178.4       178.4    
        178.4       178.4       178.4       178.4       178.4       178.4       178.4       178.4       178.4       178.4    
        178.4       178.4       178.4       178.4    
   8    178.3       178.3       178.3       178.3       178.3       178.3       178.3       178.3       178.3       178.3    
        178.3       178.3       178.3       178.3       178.3       178.3       178.3       178.3       178.3       178.3    
        178.3       178.3       178.3       178.3    
   9    178.2       178.2       178.2       178.2       178.2       178.2       178.2       178.2       178.2       178.2    
        178.2       178.2       178.2       178.2       178.2       178.2       178.2       178.2       178.2       178.2    
        178.2       178.2       178.2       178.2    
  10    178.1       178.1       178.1       178.1       178.1       178.1       178.1       178.1       178.1       178.1    
        178.1       178.1       178.1       178.1       178.1       178.1       178.1       178.1       178.1       178.1    
        178.1       178.1       178.1       178.1    
  11    178.0       178.0       178.0       178.0       178.0       178.0       178.0       178.0       178.0       178.0    
        178.0       178.0       178.0       178.0       178.0       178.0       178.0       178.0       178.0       178.0    
        178.0       178.0       178.0       178.0    
  12    177.9       177.9       177.9       177.9       177.9       177.9       177.9       177.9       177.9       177.9    
        177.9       177.9       177.9       177.9       177.9       177.9       177.9       177.9       177.9       177.9    
        177.9       177.9       177.9       177.9    

 HEAD WILL BE SAVED ON UNIT 1014 AT END OF TIME STEP    1, STRESS PERIOD  365


  VOLUME BUDGET FOR ENTIRE MODEL AT END OF TIME STEP    1, STRESS PERIOD 365
  ---------------------------------------------------------------------------------------------------

     CUMULATIVE VOLUME      L**3       RATES FOR THIS TIME STEP      L**3/T          PACKAGE NAME    
     ------------------                 ------------------------                     ----------------

           IN:                                      IN:
           ---                                      ---
                 CHD =         701.7945                   CHD =           1.9227     CHD                              

            TOTAL IN =         701.7945              TOTAL IN =           1.9227

          OUT:                                     OUT:
          ----                                     ----
                 CHD =         701.7940                   CHD =           1.9227     CHD                              

           TOTAL OUT =         701.7940             TOTAL OUT =           1.9227

            IN - OUT =       4.3979E-04              IN - OUT =       1.4779E-08

 PERCENT DISCREPANCY =           0.00     PERCENT DISCREPANCY =           0.00




         TIME SUMMARY AT END OF TIME STEP    1 IN STRESS PERIOD  365
                    SECONDS     MINUTES      HOURS       DAYS        YEARS
                    -----------------------------------------------------------
   TIME STEP LENGTH  86400.      1440.0      24.000      1.0000     2.73785E-03
 STRESS PERIOD TIME  86400.      1440.0      24.000      1.0000     2.73785E-03
         TOTAL TIME 3.15360E+07 5.25600E+05  8760.0      365.00     0.99932    


end timestep

