                                   MODFLOW 6
                U.S. GEOLOGICAL SURVEY MODULAR HYDROLOGIC MODEL
                          GROUNDWATER FLOW MODEL (GWF)
                  VERSION 6.5.0.dev2 (preliminary) 04/22/2024
                               ***DEVELOP MODE***

        MODFLOW 6 compiled Apr 22 2024 02:30:33 with GCC version 13.2.0

This software is preliminary or provisional and is subject to 
revision. It is being provided to meet the need for timely best 
science. The software has not received final approval by the U.S. 
Geological Survey (USGS). No warranty, expressed or implied, is made 
by the USGS or the U.S. Government as to the functionality of the 
software and related material nor shall the fact of release 
constitute any such warranty. The software is provided on the 
condition that neither the USGS nor the U.S. Government shall be held 
liable for any damages resulting from the authorized or unauthorized 
use of the software.


As a work of the United States Government, this USGS product is 
in the public domain within the United States. You can copy, 
modify, distribute, and perform the work, even for commercial 
purposes, all without asking permission. Additionally, USGS 
waives copyright and related rights in the work worldwide 
through CC0 1.0 Universal Public Domain Dedication 
(https://creativecommons.org/publicdomain/zero/1.0/).

The following GNU Lesser General Public License (LGPL) libraries
are used in this USGS product:

    SPARSKIT version 2.0
      ilut, luson, and qsplit 
      (https://www-users.cse.umn.edu/~saad/software/SPARSKIT/)

    RCM - Reverse Cuthill McKee Ordering
      (https://people.math.sc.edu/Burkardt/f_src/rcm/rcm.html)

    BLAS - Basic Linear Algebra Subprograms Level 1
      (https://people.math.sc.edu/Burkardt/f_src/blas1_d/blas1_d.html)

    SPARSEKIT - Sparse Matrix Utility Package
      amux, dperm, dvperm, rperm, and cperm
      (https://people.sc.fsu.edu/~jburkardt/f77_src/sparsekit/sparsekit.html)

The following BSD-3 License libraries are used in this USGS product:

    Modern Fortran DAG Library
      Copyright (c) 2018, Jacob Williams
      All rights reserved.
      (https://github.com/jacobwilliams/daglib)

MODFLOW 6 compiler options: -fdiagnostics-color=always -cpp -I
src/libmf6core.a.p -I src -I ../src -I src/libmf6_external.a.p -iprefix
/opt/homebrew/Cellar/gcc/13.2.0/bin/../lib/gcc/current/gcc/aarch64-apple-darwi
n23/13/ -D__DYNAMIC__ -D __APPLE__ -fPIC -mmacosx-version-min=14.0.0
-mlittle-endian -mabi=lp64 -O2 -Wall -Wpedantic -Wcharacter-truncation
-Wno-unused-dummy-argument -Wno-intrinsic-shadow -Wno-maybe-uninitialized
-Wno-uninitialized -std=f2008 -fall-intrinsics -ffpe-summary=overflow
-ffpe-trap=overflow,zero,invalid -J src/libmf6core.a.p

System command used to initiate simulation:


MODFLOW was compiled using uniform precision.

Real Variables
  KIND: 8
  TINY (smallest non-zero value):    2.225074-308
  HUGE (largest value):    1.797693+308
  PRECISION: 15
  SIZE IN BITS: 64

Integer Variables
  KIND: 4
  HUGE (largest value): 2147483647
  SIZE IN BITS: 32

Long Integer Variables
  KIND: 8
  HUGE (largest value): 9223372036854775807
  SIZE IN BITS: 64

Logical Variables
  KIND: 4
  SIZE IN BITS: 32

 NAMEFILE OPTIONS:
 END NAMEFILE OPTIONS:

 DIS -- STRUCTURED GRID DISCRETIZATION PACKAGE, VERSION 2 : 3/27/2014 - INPUT READ FROM MEMPATH: __INPUT__/HILLSLOPE/DIS                           


 NPF -- NODE PROPERTY FLOW PACKAGE, VERSION 1, 3/30/2015 INPUT READ FROM MEMPATH: __INPUT__/HILLSLOPE/NPF                           


 IC -- Initial Conditions Package, Version 8, 3/28/2015 input read from mempath: __INPUT__/HILLSLOPE/IC                            


 Setting Discretization Options
 End Setting Discretization Options

 Setting Discretization Dimensions
    NLAY = 1
    NROW = 24
    NCOL = 12
 End Setting Discretization Dimensions

 Setting Discretization Griddata
    DELR set from input file
    DELC set from input file
    TOP set from input file
    BOTM set from input file
 End Setting Discretization Griddata

 Setting NPF Options
    Cell-by-cell flow information will be saved to binary file whenever ICBCFL is not zero.
 End Setting NPF Options

 Setting NPF Griddata
    ICELLTYPE set from input file
    K set from input file
    K33 not provided.  Setting K33 = K.
    K22 not provided.  Setting K22 = K.
 End Setting NPF Griddata


 RCH   -- RCH PACKAGE, VERSION 8, 2/22/2014 INPUT READ FROM MEMPATH: __INPUT__/HILLSLOPE/RCH_0                         

 PROCESSING RCH BASE OPTIONS
 END OF RCH BASE OPTIONS

 PROCESSING RCH OPTIONS
 END OF RCH OPTIONS

 PROCESSING RCH BASE DIMENSIONS
    MAXBOUND =     288
 END OF RCH BASE DIMENSIONS

 CHD   -- CHD PACKAGE, VERSION 8, 2/22/2014 INPUT READ FROM MEMPATH: __INPUT__/HILLSLOPE/CHD                           

 PROCESSING CHD BASE OPTIONS
    FLOWS WILL BE SAVED TO BUDGET FILE SPECIFIED IN OUTPUT CONTROL
 END OF CHD BASE OPTIONS

 PROCESSING CHD BASE DIMENSIONS
    MAXBOUND =      68
 END OF CHD BASE DIMENSIONS
    STRT set from input file
    BINARY GRID INFORMATION WILL BE WRITTEN TO:
      UNIT NUMBER: 1014
      FILE NAME: hillslope.dis.grb

 OPENED hillslope.dis.grb
 FILE TYPE:DATA(BINARY)   UNIT 1014   STATUS:REPLACE             
 FORMAT:UNFORMATTED            ACCESS:STREAM              
 ACTION:READWRITE           

      THE LAST TIME STEP WILL BE PRINTED
      THE LAST TIME STEP WILL BE PRINTED
 # File generated by Flopy version 3.6.0 on 04/24/2024 at 09:51:03.

 PROCESSING OC OPTIONS

    BUDGET INFORMATION WILL BE WRITTEN TO:
      UNIT NUMBER: 1015
      FILE NAME: hillslope.cbb

 OPENED hillslope.cbb
 FILE TYPE:DATA(BINARY)   UNIT 1015   STATUS:REPLACE             
 FORMAT:UNFORMATTED            ACCESS:STREAM              
 ACTION:READWRITE           

    HEAD INFORMATION WILL BE WRITTEN TO:
      UNIT NUMBER: 1016
      FILE NAME: hillslope.hds

 OPENED hillslope.hds
 FILE TYPE:DATA(BINARY)   UNIT 1016   STATUS:REPLACE             
 FORMAT:UNFORMATTED            ACCESS:STREAM              
 ACTION:READWRITE           

 END OF OC OPTIONS

start timestep kper="1" kstp="1" mode="normal"


 BEGIN READING OUTPUT CONTROL FOR STRESS PERIOD 1
      ALL TIME STEPS WILL BE SAVED
      ALL TIME STEPS WILL BE SAVED
      ALL TIME STEPS WILL BE PRINTED
      ALL TIME STEPS WILL BE PRINTED

 END READING OUTPUT CONTROL FOR STRESS PERIOD 1
 UBDSV1 SAVING     FLOW-JA-FACE ON UNIT   1015 AT TIME STEP      1, STRESS PERIOD      1
 UBDSV06 SAVING              CHD IN MODEL HILLSLOPE        PACKAGE HILLSLOPE       CONNECTED TO MODEL HILLSLOPE        PACKAGE CHD              ON UNIT   1015 AT TIME STEP      1, STRESS PERIOD      1
1
  HEAD IN LAYER   1 AT END OF TIME STEP   1 IN STRESS PERIOD    1
  ---------------------------------------------------------------------------

            1           2           3           4           5           6           7           8           9          10
           11          12
 ................................................................................................................................................
   1    178.9       178.9       178.9       178.9       178.9       178.9       178.9       178.9       178.9       178.9    
        178.9       178.9    
   2    178.9       178.9       178.9       178.9       178.9       178.9       178.9       178.9       178.9       178.9    
        178.9       178.9    
   3    178.9       178.9       178.9       178.9       178.9       178.9       178.9       178.9       178.9       178.9    
        178.9       178.9    
   4    178.8       178.8       178.8       178.8       178.8       178.8       178.8       178.8       178.8       178.8    
        178.8       178.8    
   5    178.8       178.8       178.8       178.8       178.8       178.8       178.8       178.8       178.8       178.8    
        178.8       178.8    
   6    178.7       178.7       178.7       178.7       178.7       178.7       178.7       178.7       178.7       178.7    
        178.7       178.7    
   7    178.7       178.7       178.7       178.7       178.7       178.7       178.7       178.7       178.7       178.7    
        178.7       178.7    
   8    178.6       178.6       178.6       178.6       178.6       178.6       178.6       178.6       178.6       178.6    
        178.6       178.6    
   9    178.6       178.6       178.6       178.6       178.6       178.6       178.6       178.6       178.6       178.6    
        178.6       178.6    
  10    178.6       178.6       178.6       178.6       178.6       178.6       178.6       178.6       178.6       178.6    
        178.6       178.6    
  11    178.5       178.5       178.5       178.5       178.5       178.5       178.5       178.5       178.5       178.5    
        178.5       178.5    
  12    178.5       178.5       178.5       178.5       178.5       178.5       178.5       178.5       178.5       178.5    
        178.5       178.5    
  13    178.4       178.4       178.4       178.4       178.4       178.4       178.4       178.4       178.4       178.4    
        178.4       178.4    
  14    178.4       178.4       178.4       178.4       178.4       178.4       178.4       178.4       178.4       178.4    
        178.4       178.4    
  15    178.3       178.3       178.3       178.3       178.3       178.3       178.3       178.3       178.3       178.3    
        178.3       178.3    
  16    178.3       178.3       178.3       178.3       178.3       178.3       178.3       178.3       178.3       178.3    
        178.3       178.3    
  17    178.3       178.3       178.3       178.3       178.3       178.3       178.3       178.3       178.3       178.3    
        178.3       178.3    
  18    178.2       178.2       178.2       178.2       178.2       178.2       178.2       178.2       178.2       178.2    
        178.2       178.2    
  19    178.2       178.2       178.2       178.2       178.2       178.2       178.2       178.2       178.2       178.2    
        178.2       178.2    
  20    178.1       178.1       178.1       178.1       178.1       178.1       178.1       178.1       178.1       178.1    
        178.1       178.1    
  21    178.1       178.1       178.1       178.1       178.1       178.1       178.1       178.1       178.1       178.1    
        178.1       178.1    
  22    178.0       178.0       178.0       178.0       178.0       178.0       178.0       178.0       178.0       178.0    
        178.0       178.0    
  23    178.0       178.0       178.0       178.0       178.0       178.0       178.0       178.0       178.0       178.0    
        178.0       178.0    
  24    177.9       177.9       177.9       177.9       177.9       177.9       177.9       177.9       177.9       177.9    
        177.9       177.9    

 HEAD WILL BE SAVED ON UNIT 1016 AT END OF TIME STEP    1, STRESS PERIOD    1


  VOLUME BUDGET FOR ENTIRE MODEL AT END OF TIME STEP    1, STRESS PERIOD   1
  ---------------------------------------------------------------------------------------------------

     CUMULATIVE VOLUME      L**3       RATES FOR THIS TIME STEP      L**3/T          PACKAGE NAME    
     ------------------                 ------------------------                     ----------------

           IN:                                      IN:
           ---                                      ---
                 RCH =           0.0000                   RCH =           0.0000     RCH_0                            
                 CHD =           0.4323                   CHD =           0.4323     CHD                              

            TOTAL IN =           0.4323              TOTAL IN =           0.4323

          OUT:                                     OUT:
          ----                                     ----
                 RCH =           0.0000                   RCH =           0.0000     RCH_0                            
                 CHD =           0.4102                   CHD =           0.4102     CHD                              

           TOTAL OUT =           0.4102             TOTAL OUT =           0.4102

            IN - OUT =       2.2127E-02              IN - OUT =       2.2127E-02

 PERCENT DISCREPANCY =           5.25     PERCENT DISCREPANCY =           5.25




         TIME SUMMARY AT END OF TIME STEP    1 IN STRESS PERIOD    1
                    SECONDS     MINUTES      HOURS       DAYS        YEARS
                    -----------------------------------------------------------
   TIME STEP LENGTH  86400.      1440.0      24.000      1.0000     2.73785E-03
 STRESS PERIOD TIME  86400.      1440.0      24.000      1.0000     2.73785E-03
         TOTAL TIME  86400.      1440.0      24.000      1.0000     2.73785E-03


end timestep


start timestep kper="2" kstp="1" mode="normal"


 END OF FILE DETECTED IN OUTPUT CONTROL.
 CURRENT OUTPUT CONTROL SETTINGS WILL BE 
 REPEATED UNTIL THE END OF THE SIMULATION.

 OUTPUT CONTROL FOR STRESS PERIOD 2 IS REPEATED USING SETTINGS FROM A PREVIOUS STRESS PERIOD.
 UBDSV1 SAVING     FLOW-JA-FACE ON UNIT   1015 AT TIME STEP      1, STRESS PERIOD      2
 UBDSV06 SAVING              CHD IN MODEL HILLSLOPE        PACKAGE HILLSLOPE       CONNECTED TO MODEL HILLSLOPE        PACKAGE CHD              ON UNIT   1015 AT TIME STEP      1, STRESS PERIOD      2
1
  HEAD IN LAYER   1 AT END OF TIME STEP   1 IN STRESS PERIOD    2
  ---------------------------------------------------------------------------

            1           2           3           4           5           6           7           8           9          10
           11          12
 ................................................................................................................................................
   1    178.9       178.9       178.9       178.9       178.9       178.9       178.9       178.9       178.9       178.9    
        178.9       178.9    
   2    178.9       178.9       178.9       178.9       178.9       178.9       178.9       178.9       178.9       178.9    
        178.9       178.9    
   3    178.9       178.9       178.9       178.9       178.9       178.9       178.9       178.9       178.9       178.9    
        178.9       178.9    
   4    178.8       178.8       178.8       178.8       178.8       178.8       178.8       178.8       178.8       178.8    
        178.8       178.8    
   5    178.8       178.8       178.8       178.8       178.8       178.8       178.8       178.8       178.8       178.8    
        178.8       178.8    
   6    178.7       178.7       178.7       178.7       178.7       178.7       178.7       178.7       178.7       178.7    
        178.7       178.7    
   7    178.7       178.7       178.7       178.7       178.7       178.7       178.7       178.7       178.7       178.7    
        178.7       178.7    
   8    178.6       178.6       178.6       178.6       178.6       178.6       178.6       178.6       178.6       178.6    
        178.6       178.6    
   9    178.6       178.6       178.6       178.6       178.6       178.6       178.6       178.6       178.6       178.6    
        178.6       178.6    
  10    178.6       178.6       178.6       178.6       178.6       178.6       178.6       178.6       178.6       178.6    
        178.6       178.6    
  11    178.5       178.5       178.5       178.5       178.5       178.5       178.5       178.5       178.5       178.5    
        178.5       178.5    
  12    178.5       178.5       178.5       178.5       178.5       178.5       178.5       178.5       178.5       178.5    
        178.5       178.5    
  13    178.4       178.4       178.4       178.4       178.4       178.4       178.4       178.4       178.4       178.4    
        178.4       178.4    
  14    178.4       178.4       178.4       178.4       178.4       178.4       178.4       178.4       178.4       178.4    
        178.4       178.4    
  15    178.3       178.3       178.3       178.3       178.3       178.3       178.3       178.3       178.3       178.3    
        178.3       178.3    
  16    178.3       178.3       178.3       178.3       178.3       178.3       178.3       178.3       178.3       178.3    
        178.3       178.3    
  17    178.3       178.3       178.3       178.3       178.3       178.3       178.3       178.3       178.3       178.3    
        178.3       178.3    
  18    178.2       178.2       178.2       178.2       178.2       178.2       178.2       178.2       178.2       178.2    
        178.2       178.2    
  19    178.2       178.2       178.2       178.2       178.2       178.2       178.2       178.2       178.2       178.2    
        178.2       178.2    
  20    178.1       178.1       178.1       178.1       178.1       178.1       178.1       178.1       178.1       178.1    
        178.1       178.1    
  21    178.1       178.1       178.1       178.1       178.1       178.1       178.1       178.1       178.1       178.1    
        178.1       178.1    
  22    178.0       178.0       178.0       178.0       178.0       178.0       178.0       178.0       178.0       178.0    
        178.0       178.0    
  23    178.0       178.0       178.0       178.0       178.0       178.0       178.0       178.0       178.0       178.0    
        178.0       178.0    
  24    177.9       177.9       177.9       177.9       177.9       177.9       177.9       177.9       177.9       177.9    
        177.9       177.9    

 HEAD WILL BE SAVED ON UNIT 1016 AT END OF TIME STEP    1, STRESS PERIOD    2


  VOLUME BUDGET FOR ENTIRE MODEL AT END OF TIME STEP    1, STRESS PERIOD   2
  ---------------------------------------------------------------------------------------------------

     CUMULATIVE VOLUME      L**3       RATES FOR THIS TIME STEP      L**3/T          PACKAGE NAME    
     ------------------                 ------------------------                     ----------------

           IN:                                      IN:
           ---                                      ---
                 RCH =           0.0000                   RCH =           0.0000     RCH_0                            
                 CHD =           0.8605                   CHD =           0.4281     CHD                              

            TOTAL IN =           0.8605              TOTAL IN =           0.4281

          OUT:                                     OUT:
          ----                                     ----
                 RCH =           0.0000                   RCH =           0.0000     RCH_0                            
                 CHD =           0.8284                   CHD =           0.4182     CHD                              

           TOTAL OUT =           0.8284             TOTAL OUT =           0.4182

            IN - OUT =       3.2065E-02              IN - OUT =       9.9378E-03

 PERCENT DISCREPANCY =           3.80     PERCENT DISCREPANCY =           2.35




         TIME SUMMARY AT END OF TIME STEP    1 IN STRESS PERIOD    2
                    SECONDS     MINUTES      HOURS       DAYS        YEARS
                    -----------------------------------------------------------
   TIME STEP LENGTH  86400.      1440.0      24.000      1.0000     2.73785E-03
 STRESS PERIOD TIME  86400.      1440.0      24.000      1.0000     2.73785E-03
         TOTAL TIME 1.72800E+05  2880.0      48.000      2.0000     5.47570E-03


end timestep


start timestep kper="3" kstp="1" mode="normal"


 OUTPUT CONTROL FOR STRESS PERIOD 3 IS REPEATED USING SETTINGS FROM A PREVIOUS STRESS PERIOD.
 UBDSV1 SAVING     FLOW-JA-FACE ON UNIT   1015 AT TIME STEP      1, STRESS PERIOD      3
 UBDSV06 SAVING              CHD IN MODEL HILLSLOPE        PACKAGE HILLSLOPE       CONNECTED TO MODEL HILLSLOPE        PACKAGE CHD              ON UNIT   1015 AT TIME STEP      1, STRESS PERIOD      3
1
  HEAD IN LAYER   1 AT END OF TIME STEP   1 IN STRESS PERIOD    3
  ---------------------------------------------------------------------------

            1           2           3           4           5           6           7           8           9          10
           11          12
 ................................................................................................................................................
   1    178.9       178.9       178.9       178.9       178.9       178.9       178.9       178.9       178.9       178.9    
        178.9       178.9    
   2    178.9       178.9       178.9       178.9       178.9       178.9       178.9       178.9       178.9       178.9    
        178.9       178.9    
   3    178.9       178.9       178.9       178.9       178.9       178.9       178.9       178.9       178.9       178.9    
        178.9       178.9    
   4    178.8       178.8       178.8       178.8       178.8       178.8       178.8       178.8       178.8       178.8    
        178.8       178.8    
   5    178.8       178.8       178.8       178.8       178.8       178.8       178.8       178.8       178.8       178.8    
        178.8       178.8    
   6    178.7       178.7       178.7       178.7       178.7       178.7       178.7       178.7       178.7       178.7    
        178.7       178.7    
   7    178.7       178.7       178.7       178.7       178.7       178.7       178.7       178.7       178.7       178.7    
        178.7       178.7    
   8    178.6       178.6       178.6       178.6       178.6       178.6       178.6       178.6       178.6       178.6    
        178.6       178.6    
   9    178.6       178.6       178.6       178.6       178.6       178.6       178.6       178.6       178.6       178.6    
        178.6       178.6    
  10    178.6       178.6       178.6       178.6       178.6       178.6       178.6       178.6       178.6       178.6    
        178.6       178.6    
  11    178.5       178.5       178.5       178.5       178.5       178.5       178.5       178.5       178.5       178.5    
        178.5       178.5    
  12    178.5       178.5       178.5       178.5       178.5       178.5       178.5       178.5       178.5       178.5    
        178.5       178.5    
  13    178.4       178.4       178.4       178.4       178.4       178.4       178.4       178.4       178.4       178.4    
        178.4       178.4    
  14    178.4       178.4       178.4       178.4       178.4       178.4       178.4       178.4       178.4       178.4    
        178.4       178.4    
  15    178.3       178.3       178.3       178.3       178.3       178.3       178.3       178.3       178.3       178.3    
        178.3       178.3    
  16    178.3       178.3       178.3       178.3       178.3       178.3       178.3       178.3       178.3       178.3    
        178.3       178.3    
  17    178.3       178.3       178.3       178.3       178.3       178.3       178.3       178.3       178.3       178.3    
        178.3       178.3    
  18    178.2       178.2       178.2       178.2       178.2       178.2       178.2       178.2       178.2       178.2    
        178.2       178.2    
  19    178.2       178.2       178.2       178.2       178.2       178.2       178.2       178.2       178.2       178.2    
        178.2       178.2    
  20    178.1       178.1       178.1       178.1       178.1       178.1       178.1       178.1       178.1       178.1    
        178.1       178.1    
  21    178.1       178.1       178.1       178.1       178.1       178.1       178.1       178.1       178.1       178.1    
        178.1       178.1    
  22    178.0       178.0       178.0       178.0       178.0       178.0       178.0       178.0       178.0       178.0    
        178.0       178.0    
  23    178.0       178.0       178.0       178.0       178.0       178.0       178.0       178.0       178.0       178.0    
        178.0       178.0    
  24    177.9       177.9       177.9       177.9       177.9       177.9       177.9       177.9       177.9       177.9    
        177.9       177.9    

 HEAD WILL BE SAVED ON UNIT 1016 AT END OF TIME STEP    1, STRESS PERIOD    3


  VOLUME BUDGET FOR ENTIRE MODEL AT END OF TIME STEP    1, STRESS PERIOD   3
  ---------------------------------------------------------------------------------------------------

     CUMULATIVE VOLUME      L**3       RATES FOR THIS TIME STEP      L**3/T          PACKAGE NAME    
     ------------------                 ------------------------                     ----------------

           IN:                                      IN:
           ---                                      ---
                 RCH =           0.0000                   RCH =           0.0000     RCH_0                            
                 CHD =           1.2909                   CHD =           0.4305     CHD                              

            TOTAL IN =           1.2909              TOTAL IN =           0.4305

          OUT:                                     OUT:
          ----                                     ----
                 RCH =           0.0000                   RCH =           0.0000     RCH_0                            
                 CHD =           1.2469                   CHD =           0.4185     CHD                              

           TOTAL OUT =           1.2469             TOTAL OUT =           0.4185

            IN - OUT =       4.3985E-02              IN - OUT =       1.1921E-02

 PERCENT DISCREPANCY =           3.47     PERCENT DISCREPANCY =           2.81




         TIME SUMMARY AT END OF TIME STEP    1 IN STRESS PERIOD    3
                    SECONDS     MINUTES      HOURS       DAYS        YEARS
                    -----------------------------------------------------------
   TIME STEP LENGTH  86400.      1440.0      24.000      1.0000     2.73785E-03
 STRESS PERIOD TIME  86400.      1440.0      24.000      1.0000     2.73785E-03
         TOTAL TIME 2.59200E+05  4320.0      72.000      3.0000     8.21355E-03


end timestep


start timestep kper="4" kstp="1" mode="normal"


 OUTPUT CONTROL FOR STRESS PERIOD 4 IS REPEATED USING SETTINGS FROM A PREVIOUS STRESS PERIOD.
 UBDSV1 SAVING     FLOW-JA-FACE ON UNIT   1015 AT TIME STEP      1, STRESS PERIOD      4
 UBDSV06 SAVING              CHD IN MODEL HILLSLOPE        PACKAGE HILLSLOPE       CONNECTED TO MODEL HILLSLOPE        PACKAGE CHD              ON UNIT   1015 AT TIME STEP      1, STRESS PERIOD      4
1
  HEAD IN LAYER   1 AT END OF TIME STEP   1 IN STRESS PERIOD    4
  ---------------------------------------------------------------------------

            1           2           3           4           5           6           7           8           9          10
           11          12
 ................................................................................................................................................
   1    178.9       178.9       178.9       178.9       178.9       178.9       178.9       178.9       178.9       178.9    
        178.9       178.9    
   2    178.9       178.9       178.9       178.9       178.9       178.9       178.9       178.9       178.9       178.9    
        178.9       178.9    
   3    178.9       178.9       178.9       178.9       178.9       178.9       178.9       178.9       178.9       178.9    
        178.9       178.9    
   4    178.8       178.8       178.8       178.8       178.8       178.8       178.8       178.8       178.8       178.8    
        178.8       178.8    
   5    178.8       178.8       178.8       178.8       178.8       178.8       178.8       178.8       178.8       178.8    
        178.8       178.8    
   6    178.7       178.7       178.7       178.7       178.7       178.7       178.7       178.7       178.7       178.7    
        178.7       178.7    
   7    178.7       178.7       178.7       178.7       178.7       178.7       178.7       178.7       178.7       178.7    
        178.7       178.7    
   8    178.6       178.6       178.6       178.6       178.6       178.6       178.6       178.6       178.6       178.6    
        178.6       178.6    
   9    178.6       178.6       178.6       178.6       178.6       178.6       178.6       178.6       178.6       178.6    
        178.6       178.6    
  10    178.6       178.6       178.6       178.6       178.6       178.6       178.6       178.6       178.6       178.6    
        178.6       178.6    
  11    178.5       178.5       178.5       178.5       178.5       178.5       178.5       178.5       178.5       178.5    
        178.5       178.5    
  12    178.5       178.5       178.5       178.5       178.5       178.5       178.5       178.5       178.5       178.5    
        178.5       178.5    
  13    178.4       178.4       178.4       178.4       178.4       178.4       178.4       178.4       178.4       178.4    
        178.4       178.4    
  14    178.4       178.4       178.4       178.4       178.4       178.4       178.4       178.4       178.4       178.4    
        178.4       178.4    
  15    178.3       178.3       178.3       178.3       178.3       178.3       178.3       178.3       178.3       178.3    
        178.3       178.3    
  16    178.3       178.3       178.3       178.3       178.3       178.3       178.3       178.3       178.3       178.3    
        178.3       178.3    
  17    178.3       178.3       178.3       178.3       178.3       178.3       178.3       178.3       178.3       178.3    
        178.3       178.3    
  18    178.2       178.2       178.2       178.2       178.2       178.2       178.2       178.2       178.2       178.2    
        178.2       178.2    
  19    178.2       178.2       178.2       178.2       178.2       178.2       178.2       178.2       178.2       178.2    
        178.2       178.2    
  20    178.1       178.1       178.1       178.1       178.1       178.1       178.1       178.1       178.1       178.1    
        178.1       178.1    
  21    178.1       178.1       178.1       178.1       178.1       178.1       178.1       178.1       178.1       178.1    
        178.1       178.1    
  22    178.0       178.0       178.0       178.0       178.0       178.0       178.0       178.0       178.0       178.0    
        178.0       178.0    
  23    178.0       178.0       178.0       178.0       178.0       178.0       178.0       178.0       178.0       178.0    
        178.0       178.0    
  24    177.9       177.9       177.9       177.9       177.9       177.9       177.9       177.9       177.9       177.9    
        177.9       177.9    

 HEAD WILL BE SAVED ON UNIT 1016 AT END OF TIME STEP    1, STRESS PERIOD    4


  VOLUME BUDGET FOR ENTIRE MODEL AT END OF TIME STEP    1, STRESS PERIOD   4
  ---------------------------------------------------------------------------------------------------

     CUMULATIVE VOLUME      L**3       RATES FOR THIS TIME STEP      L**3/T          PACKAGE NAME    
     ------------------                 ------------------------                     ----------------

           IN:                                      IN:
           ---                                      ---
                 RCH =           0.0000                   RCH =           0.0000     RCH_0                            
                 CHD =           1.7195                   CHD =           0.4286     CHD                              

            TOTAL IN =           1.7195              TOTAL IN =           0.4286

          OUT:                                     OUT:
          ----                                     ----
                 RCH =           0.0000                   RCH =           0.0000     RCH_0                            
                 CHD =           1.6695                   CHD =           0.4226     CHD                              

           TOTAL OUT =           1.6695             TOTAL OUT =           0.4226

            IN - OUT =       4.9979E-02              IN - OUT =       5.9936E-03

 PERCENT DISCREPANCY =           2.95     PERCENT DISCREPANCY =           1.41




         TIME SUMMARY AT END OF TIME STEP    1 IN STRESS PERIOD    4
                    SECONDS     MINUTES      HOURS       DAYS        YEARS
                    -----------------------------------------------------------
   TIME STEP LENGTH  86400.      1440.0      24.000      1.0000     2.73785E-03
 STRESS PERIOD TIME  86400.      1440.0      24.000      1.0000     2.73785E-03
         TOTAL TIME 3.45600E+05  5760.0      96.000      4.0000     1.09514E-02


end timestep


start timestep kper="5" kstp="1" mode="normal"


 OUTPUT CONTROL FOR STRESS PERIOD 5 IS REPEATED USING SETTINGS FROM A PREVIOUS STRESS PERIOD.
 UBDSV1 SAVING     FLOW-JA-FACE ON UNIT   1015 AT TIME STEP      1, STRESS PERIOD      5
 UBDSV06 SAVING              CHD IN MODEL HILLSLOPE        PACKAGE HILLSLOPE       CONNECTED TO MODEL HILLSLOPE        PACKAGE CHD              ON UNIT   1015 AT TIME STEP      1, STRESS PERIOD      5
1
  HEAD IN LAYER   1 AT END OF TIME STEP   1 IN STRESS PERIOD    5
  ---------------------------------------------------------------------------

            1           2           3           4           5           6           7           8           9          10
           11          12
 ................................................................................................................................................
   1    178.9       178.9       178.9       178.9       178.9       178.9       178.9       178.9       178.9       178.9    
        178.9       178.9    
   2    178.9       178.9       178.9       178.9       178.9       178.9       178.9       178.9       178.9       178.9    
        178.9       178.9    
   3    178.9       178.9       178.9       178.9       178.9       178.9       178.9       178.9       178.9       178.9    
        178.9       178.9    
   4    178.8       178.8       178.8       178.8       178.8       178.8       178.8       178.8       178.8       178.8    
        178.8       178.8    
   5    178.8       178.8       178.8       178.8       178.8       178.8       178.8       178.8       178.8       178.8    
        178.8       178.8    
   6    178.7       178.7       178.7       178.7       178.7       178.7       178.7       178.7       178.7       178.7    
        178.7       178.7    
   7    178.7       178.7       178.7       178.7       178.7       178.7       178.7       178.7       178.7       178.7    
        178.7       178.7    
   8    178.6       178.6       178.6       178.6       178.6       178.6       178.6       178.6       178.6       178.6    
        178.6       178.6    
   9    178.6       178.6       178.6       178.6       178.6       178.6       178.6       178.6       178.6       178.6    
        178.6       178.6    
  10    178.6       178.6       178.6       178.6       178.6       178.6       178.6       178.6       178.6       178.6    
        178.6       178.6    
  11    178.5       178.5       178.5       178.5       178.5       178.5       178.5       178.5       178.5       178.5    
        178.5       178.5    
  12    178.5       178.5       178.5       178.5       178.5       178.5       178.5       178.5       178.5       178.5    
        178.5       178.5    
  13    178.4       178.4       178.4       178.4       178.4       178.4       178.4       178.4       178.4       178.4    
        178.4       178.4    
  14    178.4       178.4       178.4       178.4       178.4       178.4       178.4       178.4       178.4       178.4    
        178.4       178.4    
  15    178.3       178.3       178.3       178.3       178.3       178.3       178.3       178.3       178.3       178.3    
        178.3       178.3    
  16    178.3       178.3       178.3       178.3       178.3       178.3       178.3       178.3       178.3       178.3    
        178.3       178.3    
  17    178.3       178.3       178.3       178.3       178.3       178.3       178.3       178.3       178.3       178.3    
        178.3       178.3    
  18    178.2       178.2       178.2       178.2       178.2       178.2       178.2       178.2       178.2       178.2    
        178.2       178.2    
  19    178.2       178.2       178.2       178.2       178.2       178.2       178.2       178.2       178.2       178.2    
        178.2       178.2    
  20    178.1       178.1       178.1       178.1       178.1       178.1       178.1       178.1       178.1       178.1    
        178.1       178.1    
  21    178.1       178.1       178.1       178.1       178.1       178.1       178.1       178.1       178.1       178.1    
        178.1       178.1    
  22    178.0       178.0       178.0       178.0       178.0       178.0       178.0       178.0       178.0       178.0    
        178.0       178.0    
  23    178.0       178.0       178.0       178.0       178.0       178.0       178.0       178.0       178.0       178.0    
        178.0       178.0    
  24    177.9       177.9       177.9       177.9       177.9       177.9       177.9       177.9       177.9       177.9    
        177.9       177.9    

 HEAD WILL BE SAVED ON UNIT 1016 AT END OF TIME STEP    1, STRESS PERIOD    5


  VOLUME BUDGET FOR ENTIRE MODEL AT END OF TIME STEP    1, STRESS PERIOD   5
  ---------------------------------------------------------------------------------------------------

     CUMULATIVE VOLUME      L**3       RATES FOR THIS TIME STEP      L**3/T          PACKAGE NAME    
     ------------------                 ------------------------                     ----------------

           IN:                                      IN:
           ---                                      ---
                 RCH =           0.0000                   RCH =           0.0000     RCH_0                            
                 CHD =           2.1490                   CHD =           0.4296     CHD                              

            TOTAL IN =           2.1490              TOTAL IN =           0.4296

          OUT:                                     OUT:
          ----                                     ----
                 RCH =           0.0000                   RCH =           0.0000     RCH_0                            
                 CHD =           2.0925                   CHD =           0.4230     CHD                              

           TOTAL OUT =           2.0925             TOTAL OUT =           0.4230

            IN - OUT =       5.6571E-02              IN - OUT =       6.5919E-03

 PERCENT DISCREPANCY =           2.67     PERCENT DISCREPANCY =           1.55




         TIME SUMMARY AT END OF TIME STEP    1 IN STRESS PERIOD    5
                    SECONDS     MINUTES      HOURS       DAYS        YEARS
                    -----------------------------------------------------------
   TIME STEP LENGTH  86400.      1440.0      24.000      1.0000     2.73785E-03
 STRESS PERIOD TIME  86400.      1440.0      24.000      1.0000     2.73785E-03
         TOTAL TIME 4.32000E+05  7200.0      120.00      5.0000     1.36893E-02


end timestep


start timestep kper="6" kstp="1" mode="normal"


 OUTPUT CONTROL FOR STRESS PERIOD 6 IS REPEATED USING SETTINGS FROM A PREVIOUS STRESS PERIOD.
 UBDSV1 SAVING     FLOW-JA-FACE ON UNIT   1015 AT TIME STEP      1, STRESS PERIOD      6
 UBDSV06 SAVING              CHD IN MODEL HILLSLOPE        PACKAGE HILLSLOPE       CONNECTED TO MODEL HILLSLOPE        PACKAGE CHD              ON UNIT   1015 AT TIME STEP      1, STRESS PERIOD      6
1
  HEAD IN LAYER   1 AT END OF TIME STEP   1 IN STRESS PERIOD    6
  ---------------------------------------------------------------------------

            1           2           3           4           5           6           7           8           9          10
           11          12
 ................................................................................................................................................
   1    178.9       178.9       178.9       178.9       178.9       178.9       178.9       178.9       178.9       178.9    
        178.9       178.9    
   2    178.9       178.9       178.9       178.9       178.9       178.9       178.9       178.9       178.9       178.9    
        178.9       178.9    
   3    178.9       178.9       178.9       178.9       178.9       178.9       178.9       178.9       178.9       178.9    
        178.9       178.9    
   4    178.8       178.8       178.8       178.8       178.8       178.8       178.8       178.8       178.8       178.8    
        178.8       178.8    
   5    178.8       178.8       178.8       178.8       178.8       178.8       178.8       178.8       178.8       178.8    
        178.8       178.8    
   6    178.7       178.7       178.7       178.7       178.7       178.7       178.7       178.7       178.7       178.7    
        178.7       178.7    
   7    178.7       178.7       178.7       178.7       178.7       178.7       178.7       178.7       178.7       178.7    
        178.7       178.7    
   8    178.6       178.6       178.6       178.6       178.6       178.6       178.6       178.6       178.6       178.6    
        178.6       178.6    
   9    178.6       178.6       178.6       178.6       178.6       178.6       178.6       178.6       178.6       178.6    
        178.6       178.6    
  10    178.6       178.6       178.6       178.6       178.6       178.6       178.6       178.6       178.6       178.6    
        178.6       178.6    
  11    178.5       178.5       178.5       178.5       178.5       178.5       178.5       178.5       178.5       178.5    
        178.5       178.5    
  12    178.5       178.5       178.5       178.5       178.5       178.5       178.5       178.5       178.5       178.5    
        178.5       178.5    
  13    178.4       178.4       178.4       178.4       178.4       178.4       178.4       178.4       178.4       178.4    
        178.4       178.4    
  14    178.4       178.4       178.4       178.4       178.4       178.4       178.4       178.4       178.4       178.4    
        178.4       178.4    
  15    178.3       178.3       178.3       178.3       178.3       178.3       178.3       178.3       178.3       178.3    
        178.3       178.3    
  16    178.3       178.3       178.3       178.3       178.3       178.3       178.3       178.3       178.3       178.3    
        178.3       178.3    
  17    178.3       178.3       178.3       178.3       178.3       178.3       178.3       178.3       178.3       178.3    
        178.3       178.3    
  18    178.2       178.2       178.2       178.2       178.2       178.2       178.2       178.2       178.2       178.2    
        178.2       178.2    
  19    178.2       178.2       178.2       178.2       178.2       178.2       178.2       178.2       178.2       178.2    
        178.2       178.2    
  20    178.1       178.1       178.1       178.1       178.1       178.1       178.1       178.1       178.1       178.1    
        178.1       178.1    
  21    178.1       178.1       178.1       178.1       178.1       178.1       178.1       178.1       178.1       178.1    
        178.1       178.1    
  22    178.0       178.0       178.0       178.0       178.0       178.0       178.0       178.0       178.0       178.0    
        178.0       178.0    
  23    178.0       178.0       178.0       178.0       178.0       178.0       178.0       178.0       178.0       178.0    
        178.0       178.0    
  24    177.9       177.9       177.9       177.9       177.9       177.9       177.9       177.9       177.9       177.9    
        177.9       177.9    

 HEAD WILL BE SAVED ON UNIT 1016 AT END OF TIME STEP    1, STRESS PERIOD    6


  VOLUME BUDGET FOR ENTIRE MODEL AT END OF TIME STEP    1, STRESS PERIOD   6
  ---------------------------------------------------------------------------------------------------

     CUMULATIVE VOLUME      L**3       RATES FOR THIS TIME STEP      L**3/T          PACKAGE NAME    
     ------------------                 ------------------------                     ----------------

           IN:                                      IN:
           ---                                      ---
                 RCH =           0.0000                   RCH =           0.0000     RCH_0                            
                 CHD =           2.5777                   CHD =           0.4287     CHD                              

            TOTAL IN =           2.5777              TOTAL IN =           0.4287

          OUT:                                     OUT:
          ----                                     ----
                 RCH =           0.0000                   RCH =           0.0000     RCH_0                            
                 CHD =           2.5176                   CHD =           0.4251     CHD                              

           TOTAL OUT =           2.5176             TOTAL OUT =           0.4251

            IN - OUT =       6.0148E-02              IN - OUT =       3.5775E-03

 PERCENT DISCREPANCY =           2.36     PERCENT DISCREPANCY =           0.84




         TIME SUMMARY AT END OF TIME STEP    1 IN STRESS PERIOD    6
                    SECONDS     MINUTES      HOURS       DAYS        YEARS
                    -----------------------------------------------------------
   TIME STEP LENGTH  86400.      1440.0      24.000      1.0000     2.73785E-03
 STRESS PERIOD TIME  86400.      1440.0      24.000      1.0000     2.73785E-03
         TOTAL TIME 5.18400E+05  8640.0      144.00      6.0000     1.64271E-02


end timestep


start timestep kper="7" kstp="1" mode="normal"


 OUTPUT CONTROL FOR STRESS PERIOD 7 IS REPEATED USING SETTINGS FROM A PREVIOUS STRESS PERIOD.
 UBDSV1 SAVING     FLOW-JA-FACE ON UNIT   1015 AT TIME STEP      1, STRESS PERIOD      7
 UBDSV06 SAVING              CHD IN MODEL HILLSLOPE        PACKAGE HILLSLOPE       CONNECTED TO MODEL HILLSLOPE        PACKAGE CHD              ON UNIT   1015 AT TIME STEP      1, STRESS PERIOD      7
1
  HEAD IN LAYER   1 AT END OF TIME STEP   1 IN STRESS PERIOD    7
  ---------------------------------------------------------------------------

            1           2           3           4           5           6           7           8           9          10
           11          12
 ................................................................................................................................................
   1    178.9       178.9       178.9       178.9       178.9       178.9       178.9       178.9       178.9       178.9    
        178.9       178.9    
   2    178.9       178.9       178.9       178.9       178.9       178.9       178.9       178.9       178.9       178.9    
        178.9       178.9    
   3    178.9       178.9       178.9       178.9       178.9       178.9       178.9       178.9       178.9       178.9    
        178.9       178.9    
   4    178.8       178.8       178.8       178.8       178.8       178.8       178.8       178.8       178.8       178.8    
        178.8       178.8    
   5    178.8       178.8       178.8       178.8       178.8       178.8       178.8       178.8       178.8       178.8    
        178.8       178.8    
   6    178.7       178.7       178.7       178.7       178.7       178.7       178.7       178.7       178.7       178.7    
        178.7       178.7    
   7    178.7       178.7       178.7       178.7       178.7       178.7       178.7       178.7       178.7       178.7    
        178.7       178.7    
   8    178.6       178.6       178.6       178.6       178.6       178.6       178.6       178.6       178.6       178.6    
        178.6       178.6    
   9    178.6       178.6       178.6       178.6       178.6       178.6       178.6       178.6       178.6       178.6    
        178.6       178.6    
  10    178.6       178.6       178.6       178.6       178.6       178.6       178.6       178.6       178.6       178.6    
        178.6       178.6    
  11    178.5       178.5       178.5       178.5       178.5       178.5       178.5       178.5       178.5       178.5    
        178.5       178.5    
  12    178.5       178.5       178.5       178.5       178.5       178.5       178.5       178.5       178.5       178.5    
        178.5       178.5    
  13    178.4       178.4       178.4       178.4       178.4       178.4       178.4       178.4       178.4       178.4    
        178.4       178.4    
  14    178.4       178.4       178.4       178.4       178.4       178.4       178.4       178.4       178.4       178.4    
        178.4       178.4    
  15    178.3       178.3       178.3       178.3       178.3       178.3       178.3       178.3       178.3       178.3    
        178.3       178.3    
  16    178.3       178.3       178.3       178.3       178.3       178.3       178.3       178.3       178.3       178.3    
        178.3       178.3    
  17    178.3       178.3       178.3       178.3       178.3       178.3       178.3       178.3       178.3       178.3    
        178.3       178.3    
  18    178.2       178.2       178.2       178.2       178.2       178.2       178.2       178.2       178.2       178.2    
        178.2       178.2    
  19    178.2       178.2       178.2       178.2       178.2       178.2       178.2       178.2       178.2       178.2    
        178.2       178.2    
  20    178.1       178.1       178.1       178.1       178.1       178.1       178.1       178.1       178.1       178.1    
        178.1       178.1    
  21    178.1       178.1       178.1       178.1       178.1       178.1       178.1       178.1       178.1       178.1    
        178.1       178.1    
  22    178.0       178.0       178.0       178.0       178.0       178.0       178.0       178.0       178.0       178.0    
        178.0       178.0    
  23    178.0       178.0       178.0       178.0       178.0       178.0       178.0       178.0       178.0       178.0    
        178.0       178.0    
  24    177.9       177.9       177.9       177.9       177.9       177.9       177.9       177.9       177.9       177.9    
        177.9       177.9    

 HEAD WILL BE SAVED ON UNIT 1016 AT END OF TIME STEP    1, STRESS PERIOD    7


  VOLUME BUDGET FOR ENTIRE MODEL AT END OF TIME STEP    1, STRESS PERIOD   7
  ---------------------------------------------------------------------------------------------------

     CUMULATIVE VOLUME      L**3       RATES FOR THIS TIME STEP      L**3/T          PACKAGE NAME    
     ------------------                 ------------------------                     ----------------

           IN:                                      IN:
           ---                                      ---
                 RCH =           0.0000                   RCH =           0.0000     RCH_0                            
                 CHD =           3.0069                   CHD =           0.4291     CHD                              

            TOTAL IN =           3.0069              TOTAL IN =           0.4291

          OUT:                                     OUT:
          ----                                     ----
                 RCH =           0.0000                   RCH =           0.0000     RCH_0                            
                 CHD =           2.9430                   CHD =           0.4254     CHD                              

           TOTAL OUT =           2.9430             TOTAL OUT =           0.4254

            IN - OUT =       6.3862E-02              IN - OUT =       3.7134E-03

 PERCENT DISCREPANCY =           2.15     PERCENT DISCREPANCY =           0.87




         TIME SUMMARY AT END OF TIME STEP    1 IN STRESS PERIOD    7
                    SECONDS     MINUTES      HOURS       DAYS        YEARS
                    -----------------------------------------------------------
   TIME STEP LENGTH  86400.      1440.0      24.000      1.0000     2.73785E-03
 STRESS PERIOD TIME  86400.      1440.0      24.000      1.0000     2.73785E-03
         TOTAL TIME 6.04800E+05  10080.      168.00      7.0000     1.91650E-02


end timestep


start timestep kper="8" kstp="1" mode="normal"


 OUTPUT CONTROL FOR STRESS PERIOD 8 IS REPEATED USING SETTINGS FROM A PREVIOUS STRESS PERIOD.
 UBDSV1 SAVING     FLOW-JA-FACE ON UNIT   1015 AT TIME STEP      1, STRESS PERIOD      8
 UBDSV06 SAVING              CHD IN MODEL HILLSLOPE        PACKAGE HILLSLOPE       CONNECTED TO MODEL HILLSLOPE        PACKAGE CHD              ON UNIT   1015 AT TIME STEP      1, STRESS PERIOD      8
1
  HEAD IN LAYER   1 AT END OF TIME STEP   1 IN STRESS PERIOD    8
  ---------------------------------------------------------------------------

            1           2           3           4           5           6           7           8           9          10
           11          12
 ................................................................................................................................................
   1    178.9       178.9       178.9       178.9       178.9       178.9       178.9       178.9       178.9       178.9    
        178.9       178.9    
   2    178.9       178.9       178.9       178.9       178.9       178.9       178.9       178.9       178.9       178.9    
        178.9       178.9    
   3    178.9       178.9       178.9       178.9       178.9       178.9       178.9       178.9       178.9       178.9    
        178.9       178.9    
   4    178.8       178.8       178.8       178.8       178.8       178.8       178.8       178.8       178.8       178.8    
        178.8       178.8    
   5    178.8       178.8       178.8       178.8       178.8       178.8       178.8       178.8       178.8       178.8    
        178.8       178.8    
   6    178.7       178.7       178.7       178.7       178.7       178.7       178.7       178.7       178.7       178.7    
        178.7       178.7    
   7    178.7       178.7       178.7       178.7       178.7       178.7       178.7       178.7       178.7       178.7    
        178.7       178.7    
   8    178.6       178.6       178.6       178.6       178.6       178.6       178.6       178.6       178.6       178.6    
        178.6       178.6    
   9    178.6       178.6       178.6       178.6       178.6       178.6       178.6       178.6       178.6       178.6    
        178.6       178.6    
  10    178.6       178.6       178.6       178.6       178.6       178.6       178.6       178.6       178.6       178.6    
        178.6       178.6    
  11    178.5       178.5       178.5       178.5       178.5       178.5       178.5       178.5       178.5       178.5    
        178.5       178.5    
  12    178.5       178.5       178.5       178.5       178.5       178.5       178.5       178.5       178.5       178.5    
        178.5       178.5    
  13    178.4       178.4       178.4       178.4       178.4       178.4       178.4       178.4       178.4       178.4    
        178.4       178.4    
  14    178.4       178.4       178.4       178.4       178.4       178.4       178.4       178.4       178.4       178.4    
        178.4       178.4    
  15    178.3       178.3       178.3       178.3       178.3       178.3       178.3       178.3       178.3       178.3    
        178.3       178.3    
  16    178.3       178.3       178.3       178.3       178.3       178.3       178.3       178.3       178.3       178.3    
        178.3       178.3    
  17    178.3       178.3       178.3       178.3       178.3       178.3       178.3       178.3       178.3       178.3    
        178.3       178.3    
  18    178.2       178.2       178.2       178.2       178.2       178.2       178.2       178.2       178.2       178.2    
        178.2       178.2    
  19    178.2       178.2       178.2       178.2       178.2       178.2       178.2       178.2       178.2       178.2    
        178.2       178.2    
  20    178.1       178.1       178.1       178.1       178.1       178.1       178.1       178.1       178.1       178.1    
        178.1       178.1    
  21    178.1       178.1       178.1       178.1       178.1       178.1       178.1       178.1       178.1       178.1    
        178.1       178.1    
  22    178.0       178.0       178.0       178.0       178.0       178.0       178.0       178.0       178.0       178.0    
        178.0       178.0    
  23    178.0       178.0       178.0       178.0       178.0       178.0       178.0       178.0       178.0       178.0    
        178.0       178.0    
  24    177.9       177.9       177.9       177.9       177.9       177.9       177.9       177.9       177.9       177.9    
        177.9       177.9    

 HEAD WILL BE SAVED ON UNIT 1016 AT END OF TIME STEP    1, STRESS PERIOD    8


  VOLUME BUDGET FOR ENTIRE MODEL AT END OF TIME STEP    1, STRESS PERIOD   8
  ---------------------------------------------------------------------------------------------------

     CUMULATIVE VOLUME      L**3       RATES FOR THIS TIME STEP      L**3/T          PACKAGE NAME    
     ------------------                 ------------------------                     ----------------

           IN:                                      IN:
           ---                                      ---
                 RCH =           0.0000                   RCH =           0.0000     RCH_0                            
                 CHD =           3.4356                   CHD =           0.4287     CHD                              

            TOTAL IN =           3.4356              TOTAL IN =           0.4287

          OUT:                                     OUT:
          ----                                     ----
                 RCH =           0.0000                   RCH =           0.0000     RCH_0                            
                 CHD =           3.3696                   CHD =           0.4266     CHD                              

           TOTAL OUT =           3.3696             TOTAL OUT =           0.4266

            IN - OUT =       6.5990E-02              IN - OUT =       2.1282E-03

 PERCENT DISCREPANCY =           1.94     PERCENT DISCREPANCY =           0.50




         TIME SUMMARY AT END OF TIME STEP    1 IN STRESS PERIOD    8
                    SECONDS     MINUTES      HOURS       DAYS        YEARS
                    -----------------------------------------------------------
   TIME STEP LENGTH  86400.      1440.0      24.000      1.0000     2.73785E-03
 STRESS PERIOD TIME  86400.      1440.0      24.000      1.0000     2.73785E-03
         TOTAL TIME 6.91200E+05  11520.      192.00      8.0000     2.19028E-02


end timestep


start timestep kper="9" kstp="1" mode="normal"


 OUTPUT CONTROL FOR STRESS PERIOD 9 IS REPEATED USING SETTINGS FROM A PREVIOUS STRESS PERIOD.
 UBDSV1 SAVING     FLOW-JA-FACE ON UNIT   1015 AT TIME STEP      1, STRESS PERIOD      9
 UBDSV06 SAVING              CHD IN MODEL HILLSLOPE        PACKAGE HILLSLOPE       CONNECTED TO MODEL HILLSLOPE        PACKAGE CHD              ON UNIT   1015 AT TIME STEP      1, STRESS PERIOD      9
1
  HEAD IN LAYER   1 AT END OF TIME STEP   1 IN STRESS PERIOD    9
  ---------------------------------------------------------------------------

            1           2           3           4           5           6           7           8           9          10
           11          12
 ................................................................................................................................................
   1    178.9       178.9       178.9       178.9       178.9       178.9       178.9       178.9       178.9       178.9    
        178.9       178.9    
   2    178.9       178.9       178.9       178.9       178.9       178.9       178.9       178.9       178.9       178.9    
        178.9       178.9    
   3    178.9       178.9       178.9       178.9       178.9       178.9       178.9       178.9       178.9       178.9    
        178.9       178.9    
   4    178.8       178.8       178.8       178.8       178.8       178.8       178.8       178.8       178.8       178.8    
        178.8       178.8    
   5    178.8       178.8       178.8       178.8       178.8       178.8       178.8       178.8       178.8       178.8    
        178.8       178.8    
   6    178.7       178.7       178.7       178.7       178.7       178.7       178.7       178.7       178.7       178.7    
        178.7       178.7    
   7    178.7       178.7       178.7       178.7       178.7       178.7       178.7       178.7       178.7       178.7    
        178.7       178.7    
   8    178.6       178.6       178.6       178.6       178.6       178.6       178.6       178.6       178.6       178.6    
        178.6       178.6    
   9    178.6       178.6       178.6       178.6       178.6       178.6       178.6       178.6       178.6       178.6    
        178.6       178.6    
  10    178.6       178.6       178.6       178.6       178.6       178.6       178.6       178.6       178.6       178.6    
        178.6       178.6    
  11    178.5       178.5       178.5       178.5       178.5       178.5       178.5       178.5       178.5       178.5    
        178.5       178.5    
  12    178.5       178.5       178.5       178.5       178.5       178.5       178.5       178.5       178.5       178.5    
        178.5       178.5    
  13    178.4       178.4       178.4       178.4       178.4       178.4       178.4       178.4       178.4       178.4    
        178.4       178.4    
  14    178.4       178.4       178.4       178.4       178.4       178.4       178.4       178.4       178.4       178.4    
        178.4       178.4    
  15    178.3       178.3       178.3       178.3       178.3       178.3       178.3       178.3       178.3       178.3    
        178.3       178.3    
  16    178.3       178.3       178.3       178.3       178.3       178.3       178.3       178.3       178.3       178.3    
        178.3       178.3    
  17    178.3       178.3       178.3       178.3       178.3       178.3       178.3       178.3       178.3       178.3    
        178.3       178.3    
  18    178.2       178.2       178.2       178.2       178.2       178.2       178.2       178.2       178.2       178.2    
        178.2       178.2    
  19    178.2       178.2       178.2       178.2       178.2       178.2       178.2       178.2       178.2       178.2    
        178.2       178.2    
  20    178.1       178.1       178.1       178.1       178.1       178.1       178.1       178.1       178.1       178.1    
        178.1       178.1    
  21    178.1       178.1       178.1       178.1       178.1       178.1       178.1       178.1       178.1       178.1    
        178.1       178.1    
  22    178.0       178.0       178.0       178.0       178.0       178.0       178.0       178.0       178.0       178.0    
        178.0       178.0    
  23    178.0       178.0       178.0       178.0       178.0       178.0       178.0       178.0       178.0       178.0    
        178.0       178.0    
  24    177.9       177.9       177.9       177.9       177.9       177.9       177.9       177.9       177.9       177.9    
        177.9       177.9    

 HEAD WILL BE SAVED ON UNIT 1016 AT END OF TIME STEP    1, STRESS PERIOD    9


  VOLUME BUDGET FOR ENTIRE MODEL AT END OF TIME STEP    1, STRESS PERIOD   9
  ---------------------------------------------------------------------------------------------------

     CUMULATIVE VOLUME      L**3       RATES FOR THIS TIME STEP      L**3/T          PACKAGE NAME    
     ------------------                 ------------------------                     ----------------

           IN:                                      IN:
           ---                                      ---
                 RCH =           0.0000                   RCH =           0.0000     RCH_0                            
                 CHD =           3.8644                   CHD =           0.4289     CHD                              

            TOTAL IN =           3.8644              TOTAL IN =           0.4289

          OUT:                                     OUT:
          ----                                     ----
                 RCH =           0.0000                   RCH =           0.0000     RCH_0                            
                 CHD =           3.7963                   CHD =           0.4268     CHD                              

           TOTAL OUT =           3.7963             TOTAL OUT =           0.4268

            IN - OUT =       6.8106E-02              IN - OUT =       2.1161E-03

 PERCENT DISCREPANCY =           1.78     PERCENT DISCREPANCY =           0.49




         TIME SUMMARY AT END OF TIME STEP    1 IN STRESS PERIOD    9
                    SECONDS     MINUTES      HOURS       DAYS        YEARS
                    -----------------------------------------------------------
   TIME STEP LENGTH  86400.      1440.0      24.000      1.0000     2.73785E-03
 STRESS PERIOD TIME  86400.      1440.0      24.000      1.0000     2.73785E-03
         TOTAL TIME 7.77600E+05  12960.      216.00      9.0000     2.46407E-02


end timestep


start timestep kper="10" kstp="1" mode="normal"


 OUTPUT CONTROL FOR STRESS PERIOD 10 IS REPEATED USING SETTINGS FROM A PREVIOUS STRESS PERIOD.
 UBDSV1 SAVING     FLOW-JA-FACE ON UNIT   1015 AT TIME STEP      1, STRESS PERIOD     10
 UBDSV06 SAVING              CHD IN MODEL HILLSLOPE        PACKAGE HILLSLOPE       CONNECTED TO MODEL HILLSLOPE        PACKAGE CHD              ON UNIT   1015 AT TIME STEP      1, STRESS PERIOD     10
1
  HEAD IN LAYER   1 AT END OF TIME STEP   1 IN STRESS PERIOD   10
  ---------------------------------------------------------------------------

            1           2           3           4           5           6           7           8           9          10
           11          12
 ................................................................................................................................................
   1    178.9       178.9       178.9       178.9       178.9       178.9       178.9       178.9       178.9       178.9    
        178.9       178.9    
   2    178.9       178.9       178.9       178.9       178.9       178.9       178.9       178.9       178.9       178.9    
        178.9       178.9    
   3    178.9       178.9       178.9       178.9       178.9       178.9       178.9       178.9       178.9       178.9    
        178.9       178.9    
   4    178.8       178.8       178.8       178.8       178.8       178.8       178.8       178.8       178.8       178.8    
        178.8       178.8    
   5    178.8       178.8       178.8       178.8       178.8       178.8       178.8       178.8       178.8       178.8    
        178.8       178.8    
   6    178.7       178.7       178.7       178.7       178.7       178.7       178.7       178.7       178.7       178.7    
        178.7       178.7    
   7    178.7       178.7       178.7       178.7       178.7       178.7       178.7       178.7       178.7       178.7    
        178.7       178.7    
   8    178.6       178.6       178.6       178.6       178.6       178.6       178.6       178.6       178.6       178.6    
        178.6       178.6    
   9    178.6       178.6       178.6       178.6       178.6       178.6       178.6       178.6       178.6       178.6    
        178.6       178.6    
  10    178.6       178.6       178.6       178.6       178.6       178.6       178.6       178.6       178.6       178.6    
        178.6       178.6    
  11    178.5       178.5       178.5       178.5       178.5       178.5       178.5       178.5       178.5       178.5    
        178.5       178.5    
  12    178.5       178.5       178.5       178.5       178.5       178.5       178.5       178.5       178.5       178.5    
        178.5       178.5    
  13    178.4       178.4       178.4       178.4       178.4       178.4       178.4       178.4       178.4       178.4    
        178.4       178.4    
  14    178.4       178.4       178.4       178.4       178.4       178.4       178.4       178.4       178.4       178.4    
        178.4       178.4    
  15    178.3       178.3       178.3       178.3       178.3       178.3       178.3       178.3       178.3       178.3    
        178.3       178.3    
  16    178.3       178.3       178.3       178.3       178.3       178.3       178.3       178.3       178.3       178.3    
        178.3       178.3    
  17    178.3       178.3       178.3       178.3       178.3       178.3       178.3       178.3       178.3       178.3    
        178.3       178.3    
  18    178.2       178.2       178.2       178.2       178.2       178.2       178.2       178.2       178.2       178.2    
        178.2       178.2    
  19    178.2       178.2       178.2       178.2       178.2       178.2       178.2       178.2       178.2       178.2    
        178.2       178.2    
  20    178.1       178.1       178.1       178.1       178.1       178.1       178.1       178.1       178.1       178.1    
        178.1       178.1    
  21    178.1       178.1       178.1       178.1       178.1       178.1       178.1       178.1       178.1       178.1    
        178.1       178.1    
  22    178.0       178.0       178.0       178.0       178.0       178.0       178.0       178.0       178.0       178.0    
        178.0       178.0    
  23    178.0       178.0       178.0       178.0       178.0       178.0       178.0       178.0       178.0       178.0    
        178.0       178.0    
  24    177.9       177.9       177.9       177.9       177.9       177.9       177.9       177.9       177.9       177.9    
        177.9       177.9    

 HEAD WILL BE SAVED ON UNIT 1016 AT END OF TIME STEP    1, STRESS PERIOD   10


  VOLUME BUDGET FOR ENTIRE MODEL AT END OF TIME STEP    1, STRESS PERIOD  10
  ---------------------------------------------------------------------------------------------------

     CUMULATIVE VOLUME      L**3       RATES FOR THIS TIME STEP      L**3/T          PACKAGE NAME    
     ------------------                 ------------------------                     ----------------

           IN:                                      IN:
           ---                                      ---
                 RCH =           0.0000                   RCH =           0.0000     RCH_0                            
                 CHD =           4.2931                   CHD =           0.4287     CHD                              

            TOTAL IN =           4.2931              TOTAL IN =           0.4287

          OUT:                                     OUT:
          ----                                     ----
                 RCH =           0.0000                   RCH =           0.0000     RCH_0                            
                 CHD =           4.2238                   CHD =           0.4274     CHD                              

           TOTAL OUT =           4.2238             TOTAL OUT =           0.4274

            IN - OUT =       6.9371E-02              IN - OUT =       1.2648E-03

 PERCENT DISCREPANCY =           1.63     PERCENT DISCREPANCY =           0.30




         TIME SUMMARY AT END OF TIME STEP    1 IN STRESS PERIOD   10
                    SECONDS     MINUTES      HOURS       DAYS        YEARS
                    -----------------------------------------------------------
   TIME STEP LENGTH  86400.      1440.0      24.000      1.0000     2.73785E-03
 STRESS PERIOD TIME  86400.      1440.0      24.000      1.0000     2.73785E-03
         TOTAL TIME 8.64000E+05  14400.      240.00      10.000     2.73785E-02


end timestep


start timestep kper="11" kstp="1" mode="normal"


 OUTPUT CONTROL FOR STRESS PERIOD 11 IS REPEATED USING SETTINGS FROM A PREVIOUS STRESS PERIOD.
 UBDSV1 SAVING     FLOW-JA-FACE ON UNIT   1015 AT TIME STEP      1, STRESS PERIOD     11
 UBDSV06 SAVING              CHD IN MODEL HILLSLOPE        PACKAGE HILLSLOPE       CONNECTED TO MODEL HILLSLOPE        PACKAGE CHD              ON UNIT   1015 AT TIME STEP      1, STRESS PERIOD     11
1
  HEAD IN LAYER   1 AT END OF TIME STEP   1 IN STRESS PERIOD   11
  ---------------------------------------------------------------------------

            1           2           3           4           5           6           7           8           9          10
           11          12
 ................................................................................................................................................
   1    178.9       178.9       178.9       178.9       178.9       178.9       178.9       178.9       178.9       178.9    
        178.9       178.9    
   2    178.9       178.9       178.9       178.9       178.9       178.9       178.9       178.9       178.9       178.9    
        178.9       178.9    
   3    178.9       178.9       178.9       178.9       178.9       178.9       178.9       178.9       178.9       178.9    
        178.9       178.9    
   4    178.8       178.8       178.8       178.8       178.8       178.8       178.8       178.8       178.8       178.8    
        178.8       178.8    
   5    178.8       178.8       178.8       178.8       178.8       178.8       178.8       178.8       178.8       178.8    
        178.8       178.8    
   6    178.7       178.7       178.7       178.7       178.7       178.7       178.7       178.7       178.7       178.7    
        178.7       178.7    
   7    178.7       178.7       178.7       178.7       178.7       178.7       178.7       178.7       178.7       178.7    
        178.7       178.7    
   8    178.6       178.6       178.6       178.6       178.6       178.6       178.6       178.6       178.6       178.6    
        178.6       178.6    
   9    178.6       178.6       178.6       178.6       178.6       178.6       178.6       178.6       178.6       178.6    
        178.6       178.6    
  10    178.6       178.6       178.6       178.6       178.6       178.6       178.6       178.6       178.6       178.6    
        178.6       178.6    
  11    178.5       178.5       178.5       178.5       178.5       178.5       178.5       178.5       178.5       178.5    
        178.5       178.5    
  12    178.5       178.5       178.5       178.5       178.5       178.5       178.5       178.5       178.5       178.5    
        178.5       178.5    
  13    178.4       178.4       178.4       178.4       178.4       178.4       178.4       178.4       178.4       178.4    
        178.4       178.4    
  14    178.4       178.4       178.4       178.4       178.4       178.4       178.4       178.4       178.4       178.4    
        178.4       178.4    
  15    178.3       178.3       178.3       178.3       178.3       178.3       178.3       178.3       178.3       178.3    
        178.3       178.3    
  16    178.3       178.3       178.3       178.3       178.3       178.3       178.3       178.3       178.3       178.3    
        178.3       178.3    
  17    178.3       178.3       178.3       178.3       178.3       178.3       178.3       178.3       178.3       178.3    
        178.3       178.3    
  18    178.2       178.2       178.2       178.2       178.2       178.2       178.2       178.2       178.2       178.2    
        178.2       178.2    
  19    178.2       178.2       178.2       178.2       178.2       178.2       178.2       178.2       178.2       178.2    
        178.2       178.2    
  20    178.1       178.1       178.1       178.1       178.1       178.1       178.1       178.1       178.1       178.1    
        178.1       178.1    
  21    178.1       178.1       178.1       178.1       178.1       178.1       178.1       178.1       178.1       178.1    
        178.1       178.1    
  22    178.0       178.0       178.0       178.0       178.0       178.0       178.0       178.0       178.0       178.0    
        178.0       178.0    
  23    178.0       178.0       178.0       178.0       178.0       178.0       178.0       178.0       178.0       178.0    
        178.0       178.0    
  24    177.9       177.9       177.9       177.9       177.9       177.9       177.9       177.9       177.9       177.9    
        177.9       177.9    

 HEAD WILL BE SAVED ON UNIT 1016 AT END OF TIME STEP    1, STRESS PERIOD   11


  VOLUME BUDGET FOR ENTIRE MODEL AT END OF TIME STEP    1, STRESS PERIOD  11
  ---------------------------------------------------------------------------------------------------

     CUMULATIVE VOLUME      L**3       RATES FOR THIS TIME STEP      L**3/T          PACKAGE NAME    
     ------------------                 ------------------------                     ----------------

           IN:                                      IN:
           ---                                      ---
                 RCH =           0.0000                   RCH =           0.0000     RCH_0                            
                 CHD =           4.7219                   CHD =           0.4288     CHD                              

            TOTAL IN =           4.7219              TOTAL IN =           0.4288

          OUT:                                     OUT:
          ----                                     ----
                 RCH =           0.0000                   RCH =           0.0000     RCH_0                            
                 CHD =           4.6513                   CHD =           0.4276     CHD                              

           TOTAL OUT =           4.6513             TOTAL OUT =           0.4276

            IN - OUT =       7.0586E-02              IN - OUT =       1.2155E-03

 PERCENT DISCREPANCY =           1.51     PERCENT DISCREPANCY =           0.28




         TIME SUMMARY AT END OF TIME STEP    1 IN STRESS PERIOD   11
                    SECONDS     MINUTES      HOURS       DAYS        YEARS
                    -----------------------------------------------------------
   TIME STEP LENGTH  86400.      1440.0      24.000      1.0000     2.73785E-03
 STRESS PERIOD TIME  86400.      1440.0      24.000      1.0000     2.73785E-03
         TOTAL TIME 9.50400E+05  15840.      264.00      11.000     3.01164E-02


end timestep


start timestep kper="12" kstp="1" mode="normal"


 OUTPUT CONTROL FOR STRESS PERIOD 12 IS REPEATED USING SETTINGS FROM A PREVIOUS STRESS PERIOD.
 UBDSV1 SAVING     FLOW-JA-FACE ON UNIT   1015 AT TIME STEP      1, STRESS PERIOD     12
 UBDSV06 SAVING              CHD IN MODEL HILLSLOPE        PACKAGE HILLSLOPE       CONNECTED TO MODEL HILLSLOPE        PACKAGE CHD              ON UNIT   1015 AT TIME STEP      1, STRESS PERIOD     12
1
  HEAD IN LAYER   1 AT END OF TIME STEP   1 IN STRESS PERIOD   12
  ---------------------------------------------------------------------------

            1           2           3           4           5           6           7           8           9          10
           11          12
 ................................................................................................................................................
   1    178.9       178.9       178.9       178.9       178.9       178.9       178.9       178.9       178.9       178.9    
        178.9       178.9    
[...]
 STRESS PERIOD TIME  86400.      1440.0      24.000      1.0000     2.73785E-03
         TOTAL TIME 3.12768E+07 5.21280E+05  8688.0      362.00     0.99110    


end timestep


start timestep kper="363" kstp="1" mode="normal"


 OUTPUT CONTROL FOR STRESS PERIOD 363 IS REPEATED USING SETTINGS FROM A PREVIOUS STRESS PERIOD.
 UBDSV1 SAVING     FLOW-JA-FACE ON UNIT   1015 AT TIME STEP      1, STRESS PERIOD    363
 UBDSV06 SAVING              CHD IN MODEL HILLSLOPE        PACKAGE HILLSLOPE       CONNECTED TO MODEL HILLSLOPE        PACKAGE CHD              ON UNIT   1015 AT TIME STEP      1, STRESS PERIOD    363
1
  HEAD IN LAYER   1 AT END OF TIME STEP   1 IN STRESS PERIOD  363
  ---------------------------------------------------------------------------

            1           2           3           4           5           6           7           8           9          10
           11          12
 ................................................................................................................................................
   1    178.9       178.9       178.9       178.9       178.9       178.9       178.9       178.9       178.9       178.9    
        178.9       178.9    
   2    178.9       179.0       179.0       179.0       179.0       179.0       179.0       179.0       179.0       179.0    
        179.0       178.9    
   3    178.9       179.0       179.0       179.1       179.1       179.1       179.1       179.1       179.0       179.0    
        178.9       178.9    
   4    178.8       178.9       179.0       179.1       179.1       179.1       179.1       179.1       179.1       179.0    
        178.9       178.8    
   5    178.8       178.9       179.0       179.1       179.1       179.2       179.1       179.1       179.1       179.0    
        178.9       178.8    
   6    178.7       178.9       179.0       179.1       179.2       179.2       179.2       179.1       179.1       179.0    
        178.9       178.7    
   7    178.7       178.9       179.0       179.1       179.2       179.2       179.1       179.1       179.1       179.0    
        178.9       178.7    
   8    178.6       178.8       179.0       179.1       179.1       179.2       179.1       179.1       179.1       179.0    
        178.8       178.6    
   9    178.6       178.8       178.9       179.0       179.1       179.1       179.1       179.1       179.0       178.9    
        178.8       178.6    
  10    178.6       178.8       178.9       179.0       179.1       179.1       179.1       179.0       179.0       178.9    
        178.7       178.6    
  11    178.5       178.7       178.9       179.0       179.0       179.1       179.1       179.0       178.9       178.8    
        178.7       178.5    
  12    178.5       178.7       178.8       178.9       179.0       179.0       179.0       179.0       178.9       178.8    
        178.7       178.5    
  13    178.4       178.6       178.8       178.9       178.9       179.0       178.9       178.9       178.9       178.7    
        178.6       178.4    
  14    178.4       178.6       178.7       178.8       178.9       178.9       178.9       178.9       178.8       178.7    
        178.6       178.4    
  15    178.3       178.5       178.7       178.8       178.8       178.8       178.8       178.8       178.8       178.7    
        178.5       178.3    
  16    178.3       178.5       178.6       178.7       178.8       178.8       178.8       178.8       178.7       178.6    
        178.5       178.3    
  17    178.3       178.4       178.6       178.7       178.7       178.7       178.7       178.7       178.6       178.5    
        178.4       178.3    
  18    178.2       178.4       178.5       178.6       178.7       178.7       178.7       178.6       178.6       178.5    
        178.4       178.2    
  19    178.2       178.3       178.5       178.6       178.6       178.6       178.6       178.6       178.5       178.4    
        178.3       178.2    
  20    178.1       178.3       178.4       178.5       178.5       178.6       178.5       178.5       178.4       178.4    
        178.3       178.1    
  21    178.1       178.2       178.3       178.4       178.5       178.5       178.4       178.4       178.4       178.3    
        178.2       178.1    
  22    178.0       178.2       178.2       178.3       178.3       178.3       178.3       178.3       178.2       178.2    
        178.1       178.0    
  23    178.0       178.1       178.1       178.1       178.2       178.2       178.2       178.1       178.1       178.1    
        178.1       178.0    
  24    177.9       177.9       177.9       177.9       177.9       177.9       177.9       177.9       177.9       177.9    
        177.9       177.9    

 HEAD WILL BE SAVED ON UNIT 1016 AT END OF TIME STEP    1, STRESS PERIOD  363


  VOLUME BUDGET FOR ENTIRE MODEL AT END OF TIME STEP    1, STRESS PERIOD 363
  ---------------------------------------------------------------------------------------------------

     CUMULATIVE VOLUME      L**3       RATES FOR THIS TIME STEP      L**3/T          PACKAGE NAME    
     ------------------                 ------------------------                     ----------------

           IN:                                      IN:
           ---                                      ---
                 RCH =        2852.3360                   RCH =           8.5242     RCH_0                            
                 CHD =          13.3982                   CHD =           0.0000     CHD                              

            TOTAL IN =        2865.7341              TOTAL IN =           8.5242

          OUT:                                     OUT:
          ----                                     ----
                 RCH =           0.0000                   RCH =           0.0000     RCH_0                            
                 CHD =        2865.6220                   CHD =           8.5274     CHD                              

           TOTAL OUT =        2865.6220             TOTAL OUT =           8.5274

            IN - OUT =           0.1121              IN - OUT =      -3.2594E-03

 PERCENT DISCREPANCY =           0.00     PERCENT DISCREPANCY =          -0.04




         TIME SUMMARY AT END OF TIME STEP    1 IN STRESS PERIOD  363
                    SECONDS     MINUTES      HOURS       DAYS        YEARS
                    -----------------------------------------------------------
   TIME STEP LENGTH  86400.      1440.0      24.000      1.0000     2.73785E-03
 STRESS PERIOD TIME  86400.      1440.0      24.000      1.0000     2.73785E-03
         TOTAL TIME 3.13632E+07 5.22720E+05  8712.0      363.00     0.99384    


end timestep


start timestep kper="364" kstp="1" mode="normal"


 OUTPUT CONTROL FOR STRESS PERIOD 364 IS REPEATED USING SETTINGS FROM A PREVIOUS STRESS PERIOD.
 UBDSV1 SAVING     FLOW-JA-FACE ON UNIT   1015 AT TIME STEP      1, STRESS PERIOD    364
 UBDSV06 SAVING              CHD IN MODEL HILLSLOPE        PACKAGE HILLSLOPE       CONNECTED TO MODEL HILLSLOPE        PACKAGE CHD              ON UNIT   1015 AT TIME STEP      1, STRESS PERIOD    364
1
  HEAD IN LAYER   1 AT END OF TIME STEP   1 IN STRESS PERIOD  364
  ---------------------------------------------------------------------------

            1           2           3           4           5           6           7           8           9          10
           11          12
 ................................................................................................................................................
   1    178.9       178.9       178.9       178.9       178.9       178.9       178.9       178.9       178.9       178.9    
        178.9       178.9    
   2    178.9       179.0       179.0       179.0       179.0       179.0       179.0       179.0       179.0       179.0    
        179.0       178.9    
   3    178.9       178.9       179.0       179.1       179.1       179.1       179.1       179.1       179.0       179.0    
        179.0       178.9    
   4    178.8       178.9       179.0       179.1       179.1       179.1       179.1       179.1       179.1       179.0    
        179.0       178.8    
   5    178.8       178.9       179.0       179.1       179.1       179.1       179.1       179.1       179.1       179.0    
        178.9       178.8    
   6    178.7       178.9       179.0       179.1       179.1       179.1       179.1       179.1       179.1       179.0    
        178.9       178.7    
   7    178.7       178.8       179.0       179.1       179.1       179.1       179.1       179.1       179.1       179.0    
        178.8       178.7    
   8    178.6       178.8       178.9       179.0       179.1       179.1       179.1       179.1       179.0       178.9    
        178.8       178.6    
   9    178.6       178.8       178.9       179.0       179.1       179.1       179.1       179.1       179.0       178.9    
        178.8       178.6    
  10    178.6       178.7       178.9       179.0       179.0       179.1       179.1       179.0       179.0       178.9    
        178.7       178.6    
  11    178.5       178.7       178.8       178.9       179.0       179.1       179.0       179.0       178.9       178.8    
        178.7       178.5    
  12    178.5       178.7       178.8       178.9       179.0       179.0       179.0       179.0       178.9       178.8    
        178.7       178.5    
  13    178.4       178.6       178.8       178.9       179.0       179.0       179.0       178.9       178.9       178.8    
        178.6       178.4    
  14    178.4       178.6       178.7       178.8       178.9       179.0       178.9       178.9       178.8       178.7    
        178.6       178.4    
  15    178.3       178.5       178.7       178.8       178.9       178.9       178.9       178.9       178.8       178.7    
        178.5       178.3    
  16    178.3       178.5       178.6       178.7       178.8       178.9       178.9       178.8       178.8       178.6    
        178.5       178.3    
  17    178.3       178.4       178.6       178.7       178.7       178.8       178.8       178.8       178.7       178.6    
        178.4       178.3    
  18    178.2       178.4       178.5       178.6       178.7       178.7       178.7       178.7       178.6       178.5    
        178.4       178.2    
  19    178.2       178.3       178.5       178.6       178.6       178.6       178.6       178.6       178.6       178.5    
        178.3       178.2    
  20    178.1       178.3       178.4       178.5       178.5       178.6       178.6       178.5       178.5       178.4    
        178.3       178.1    
  21    178.1       178.2       178.3       178.4       178.4       178.5       178.5       178.4       178.4       178.3    
        178.2       178.1    
  22    178.0       178.1       178.2       178.3       178.3       178.3       178.3       178.3       178.3       178.2    
        178.1       178.0    
  23    178.0       178.1       178.1       178.1       178.1       178.2       178.2       178.1       178.1       178.1    
        178.1       178.0    
  24    177.9       177.9       177.9       177.9       177.9       177.9       177.9       177.9       177.9       177.9    
        177.9       177.9    

 HEAD WILL BE SAVED ON UNIT 1016 AT END OF TIME STEP    1, STRESS PERIOD  364


  VOLUME BUDGET FOR ENTIRE MODEL AT END OF TIME STEP    1, STRESS PERIOD 364
  ---------------------------------------------------------------------------------------------------

     CUMULATIVE VOLUME      L**3       RATES FOR THIS TIME STEP      L**3/T          PACKAGE NAME    
     ------------------                 ------------------------                     ----------------

           IN:                                      IN:
           ---                                      ---
                 RCH =        2860.9154                   RCH =           8.5794     RCH_0                            
                 CHD =          13.3982                   CHD =           0.0000     CHD                              

            TOTAL IN =        2874.3135              TOTAL IN =           8.5794

          OUT:                                     OUT:
          ----                                     ----
                 RCH =           0.0000                   RCH =           0.0000     RCH_0                            
                 CHD =        2874.1945                   CHD =           8.5725     CHD                              

           TOTAL OUT =        2874.1945             TOTAL OUT =           8.5725

            IN - OUT =           0.1190              IN - OUT =       6.8854E-03

 PERCENT DISCREPANCY =           0.00     PERCENT DISCREPANCY =           0.08




         TIME SUMMARY AT END OF TIME STEP    1 IN STRESS PERIOD  364
                    SECONDS     MINUTES      HOURS       DAYS        YEARS
                    -----------------------------------------------------------
   TIME STEP LENGTH  86400.      1440.0      24.000      1.0000     2.73785E-03
 STRESS PERIOD TIME  86400.      1440.0      24.000      1.0000     2.73785E-03
         TOTAL TIME 3.14496E+07 5.24160E+05  8736.0      364.00     0.99658    


end timestep


start timestep kper="365" kstp="1" mode="normal"


 OUTPUT CONTROL FOR STRESS PERIOD 365 IS REPEATED USING SETTINGS FROM A PREVIOUS STRESS PERIOD.
 UBDSV1 SAVING     FLOW-JA-FACE ON UNIT   1015 AT TIME STEP      1, STRESS PERIOD    365
 UBDSV06 SAVING              CHD IN MODEL HILLSLOPE        PACKAGE HILLSLOPE       CONNECTED TO MODEL HILLSLOPE        PACKAGE CHD              ON UNIT   1015 AT TIME STEP      1, STRESS PERIOD    365
1
  HEAD IN LAYER   1 AT END OF TIME STEP   1 IN STRESS PERIOD  365
  ---------------------------------------------------------------------------

            1           2           3           4           5           6           7           8           9          10
           11          12
 ................................................................................................................................................
   1    178.9       178.9       178.9       178.9       178.9       178.9       178.9       178.9       178.9       178.9    
        178.9       178.9    
   2    178.9       179.0       179.0       179.0       179.0       179.1       179.1       179.1       179.0       179.0    
        179.0       178.9    
   3    178.9       179.0       179.0       179.1       179.1       179.1       179.1       179.1       179.1       179.0    
        179.0       178.9    
   4    178.8       178.9       179.0       179.1       179.2       179.2       179.2       179.2       179.1       179.0    
        178.9       178.8    
   5    178.8       178.9       179.1       179.1       179.2       179.2       179.2       179.2       179.1       179.0    
        178.9       178.8    
   6    178.7       178.9       179.1       179.2       179.2       179.2       179.2       179.2       179.1       179.0    
        178.9       178.7    
   7    178.7       178.9       179.0       179.1       179.2       179.2       179.2       179.2       179.1       179.0    
        178.9       178.7    
   8    178.6       178.8       179.0       179.1       179.2       179.2       179.2       179.2       179.1       179.0    
        178.8       178.6    
   9    178.6       178.8       179.0       179.1       179.1       179.2       179.2       179.1       179.1       178.9    
        178.8       178.6    
  10    178.6       178.8       178.9       179.0       179.1       179.1       179.1       179.1       179.0       178.9    
        178.8       178.6    
  11    178.5       178.7       178.9       179.0       179.1       179.1       179.1       179.1       179.0       178.9    
        178.7       178.5    
  12    178.5       178.7       178.8       179.0       179.0       179.0       179.0       179.0       178.9       178.8    
        178.7       178.5    
  13    178.4       178.6       178.8       178.9       179.0       179.0       179.0       178.9       178.9       178.8    
        178.6       178.4    
  14    178.4       178.6       178.7       178.8       178.9       178.9       178.9       178.9       178.8       178.7    
        178.6       178.4    
  15    178.3       178.5       178.7       178.8       178.8       178.9       178.9       178.8       178.8       178.7    
        178.5       178.3    
  16    178.3       178.5       178.6       178.7       178.8       178.8       178.8       178.8       178.7       178.6    
        178.5       178.3    
  17    178.3       178.4       178.6       178.7       178.7       178.7       178.7       178.7       178.7       178.6    
        178.5       178.3    
  18    178.2       178.4       178.5       178.6       178.7       178.7       178.7       178.7       178.6       178.5    
        178.4       178.2    
  19    178.2       178.3       178.5       178.6       178.6       178.6       178.6       178.6       178.5       178.5    
        178.3       178.2    
  20    178.1       178.3       178.4       178.5       178.5       178.6       178.6       178.5       178.5       178.4    
        178.3       178.1    
  21    178.1       178.2       178.3       178.4       178.4       178.5       178.5       178.4       178.4       178.3    
        178.2       178.1    
  22    178.0       178.1       178.2       178.3       178.3       178.3       178.3       178.3       178.3       178.2    
        178.1       178.0    
  23    178.0       178.0       178.1       178.1       178.1       178.2       178.2       178.1       178.1       178.1    
        178.1       178.0    
  24    177.9       177.9       177.9       177.9       177.9       177.9       177.9       177.9       177.9       177.9    
        177.9       177.9    

 HEAD WILL BE SAVED ON UNIT 1016 AT END OF TIME STEP    1, STRESS PERIOD  365


  VOLUME BUDGET FOR ENTIRE MODEL AT END OF TIME STEP    1, STRESS PERIOD 365
  ---------------------------------------------------------------------------------------------------

     CUMULATIVE VOLUME      L**3       RATES FOR THIS TIME STEP      L**3/T          PACKAGE NAME    
     ------------------                 ------------------------                     ----------------

           IN:                                      IN:
           ---                                      ---
                 RCH =        2869.7496                   RCH =           8.8342     RCH_0                            
                 CHD =          13.3982                   CHD =           0.0000     CHD                              

            TOTAL IN =        2883.1478              TOTAL IN =           8.8342

          OUT:                                     OUT:
          ----                                     ----
                 RCH =           0.0000                   RCH =           0.0000     RCH_0                            
                 CHD =        2883.0340                   CHD =           8.8395     CHD                              

           TOTAL OUT =        2883.0340             TOTAL OUT =           8.8395

            IN - OUT =           0.1137              IN - OUT =      -5.2789E-03

 PERCENT DISCREPANCY =           0.00     PERCENT DISCREPANCY =          -0.06




         TIME SUMMARY AT END OF TIME STEP    1 IN STRESS PERIOD  365
                    SECONDS     MINUTES      HOURS       DAYS        YEARS
                    -----------------------------------------------------------
   TIME STEP LENGTH  86400.      1440.0      24.000      1.0000     2.73785E-03
 STRESS PERIOD TIME  86400.      1440.0      24.000      1.0000     2.73785E-03
         TOTAL TIME 3.15360E+07 5.25600E+05  8760.0      365.00     0.99932    


end timestep

