                                   MODFLOW 6
                U.S. GEOLOGICAL SURVEY MODULAR HYDROLOGIC MODEL
                          GROUNDWATER FLOW MODEL (GWF)
                  VERSION 6.5.0.dev2 (preliminary) 04/22/2024
                               ***DEVELOP MODE***

        MODFLOW 6 compiled Apr 22 2024 02:30:33 with GCC version 13.2.0

This software is preliminary or provisional and is subject to 
revision. It is being provided to meet the need for timely best 
science. The software has not received final approval by the U.S. 
Geological Survey (USGS). No warranty, expressed or implied, is made 
by the USGS or the U.S. Government as to the functionality of the 
software and related material nor shall the fact of release 
constitute any such warranty. The software is provided on the 
condition that neither the USGS nor the U.S. Government shall be held 
liable for any damages resulting from the authorized or unauthorized 
use of the software.


As a work of the United States Government, this USGS product is 
in the public domain within the United States. You can copy, 
modify, distribute, and perform the work, even for commercial 
purposes, all without asking permission. Additionally, USGS 
waives copyright and related rights in the work worldwide 
through CC0 1.0 Universal Public Domain Dedication 
(https://creativecommons.org/publicdomain/zero/1.0/).

The following GNU Lesser General Public License (LGPL) libraries
are used in this USGS product:

    SPARSKIT version 2.0
      ilut, luson, and qsplit 
      (https://www-users.cse.umn.edu/~saad/software/SPARSKIT/)

    RCM - Reverse Cuthill McKee Ordering
      (https://people.math.sc.edu/Burkardt/f_src/rcm/rcm.html)

    BLAS - Basic Linear Algebra Subprograms Level 1
      (https://people.math.sc.edu/Burkardt/f_src/blas1_d/blas1_d.html)

    SPARSEKIT - Sparse Matrix Utility Package
      amux, dperm, dvperm, rperm, and cperm
      (https://people.sc.fsu.edu/~jburkardt/f77_src/sparsekit/sparsekit.html)

The following BSD-3 License libraries are used in this USGS product:

    Modern Fortran DAG Library
      Copyright (c) 2018, Jacob Williams
      All rights reserved.
      (https://github.com/jacobwilliams/daglib)

MODFLOW 6 compiler options: -fdiagnostics-color=always -cpp -I
src/libmf6core.a.p -I src -I ../src -I src/libmf6_external.a.p -iprefix
/opt/homebrew/Cellar/gcc/13.2.0/bin/../lib/gcc/current/gcc/aarch64-apple-darwi
n23/13/ -D__DYNAMIC__ -D __APPLE__ -fPIC -mmacosx-version-min=14.0.0
-mlittle-endian -mabi=lp64 -O2 -Wall -Wpedantic -Wcharacter-truncation
-Wno-unused-dummy-argument -Wno-intrinsic-shadow -Wno-maybe-uninitialized
-Wno-uninitialized -std=f2008 -fall-intrinsics -ffpe-summary=overflow
-ffpe-trap=overflow,zero,invalid -J src/libmf6core.a.p

System command used to initiate simulation:


MODFLOW was compiled using uniform precision.

Real Variables
  KIND: 8
  TINY (smallest non-zero value):    2.225074-308
  HUGE (largest value):    1.797693+308
  PRECISION: 15
  SIZE IN BITS: 64

Integer Variables
  KIND: 4
  HUGE (largest value): 2147483647
  SIZE IN BITS: 32

Long Integer Variables
  KIND: 8
  HUGE (largest value): 9223372036854775807
  SIZE IN BITS: 64

Logical Variables
  KIND: 4
  SIZE IN BITS: 32

 NAMEFILE OPTIONS:
 END NAMEFILE OPTIONS:

 DIS -- STRUCTURED GRID DISCRETIZATION PACKAGE, VERSION 2 : 3/27/2014 - INPUT READ FROM MEMPATH: __INPUT__/HILLSLOPE/DIS                           


 NPF -- NODE PROPERTY FLOW PACKAGE, VERSION 1, 3/30/2015 INPUT READ FROM MEMPATH: __INPUT__/HILLSLOPE/NPF                           


 IC -- Initial Conditions Package, Version 8, 3/28/2015 input read from mempath: __INPUT__/HILLSLOPE/IC                            


 Setting Discretization Options
 End Setting Discretization Options

 Setting Discretization Dimensions
    NLAY = 1
    NROW = 24
    NCOL = 12
 End Setting Discretization Dimensions

 Setting Discretization Griddata
    DELR set from input file
    DELC set from input file
    TOP set from input file
    BOTM set from input file
 End Setting Discretization Griddata

 Setting NPF Options
    Cell-by-cell flow information will be saved to binary file whenever ICBCFL is not zero.
 End Setting NPF Options

 Setting NPF Griddata
    ICELLTYPE set from input file
    K set from input file
    K33 not provided.  Setting K33 = K.
    K22 not provided.  Setting K22 = K.
 End Setting NPF Griddata


 RCH   -- RCH PACKAGE, VERSION 8, 2/22/2014 INPUT READ FROM MEMPATH: __INPUT__/HILLSLOPE/RCH_0                         

 PROCESSING RCH BASE OPTIONS
 END OF RCH BASE OPTIONS

 PROCESSING RCH OPTIONS
 END OF RCH OPTIONS

 PROCESSING RCH BASE DIMENSIONS
    MAXBOUND =     288
 END OF RCH BASE DIMENSIONS

 CHD   -- CHD PACKAGE, VERSION 8, 2/22/2014 INPUT READ FROM MEMPATH: __INPUT__/HILLSLOPE/CHD                           

 PROCESSING CHD BASE OPTIONS
    FLOWS WILL BE SAVED TO BUDGET FILE SPECIFIED IN OUTPUT CONTROL
 END OF CHD BASE OPTIONS

 PROCESSING CHD BASE DIMENSIONS
    MAXBOUND =      68
 END OF CHD BASE DIMENSIONS
    STRT set from input file
    BINARY GRID INFORMATION WILL BE WRITTEN TO:
      UNIT NUMBER: 1014
      FILE NAME: hillslope.dis.grb

 OPENED hillslope.dis.grb
 FILE TYPE:DATA(BINARY)   UNIT 1014   STATUS:REPLACE             
 FORMAT:UNFORMATTED            ACCESS:STREAM              
 ACTION:READWRITE           

      THE LAST TIME STEP WILL BE PRINTED
      THE LAST TIME STEP WILL BE PRINTED
 # File generated by Flopy version 3.6.0 on 04/24/2024 at 14:57:59.

 PROCESSING OC OPTIONS

    BUDGET INFORMATION WILL BE WRITTEN TO:
      UNIT NUMBER: 1015
      FILE NAME: hillslope.cbb

 OPENED hillslope.cbb
 FILE TYPE:DATA(BINARY)   UNIT 1015   STATUS:REPLACE             
 FORMAT:UNFORMATTED            ACCESS:STREAM              
 ACTION:READWRITE           

    HEAD INFORMATION WILL BE WRITTEN TO:
      UNIT NUMBER: 1016
      FILE NAME: hillslope.hds

 OPENED hillslope.hds
 FILE TYPE:DATA(BINARY)   UNIT 1016   STATUS:REPLACE             
 FORMAT:UNFORMATTED            ACCESS:STREAM              
 ACTION:READWRITE           

 END OF OC OPTIONS

start timestep kper="1" kstp="1" mode="normal"


 BEGIN READING OUTPUT CONTROL FOR STRESS PERIOD 1
      ALL TIME STEPS WILL BE SAVED
      ALL TIME STEPS WILL BE SAVED
      ALL TIME STEPS WILL BE PRINTED
      ALL TIME STEPS WILL BE PRINTED

 END READING OUTPUT CONTROL FOR STRESS PERIOD 1
 UBDSV1 SAVING     FLOW-JA-FACE ON UNIT   1015 AT TIME STEP      1, STRESS PERIOD      1
 UBDSV06 SAVING              CHD IN MODEL HILLSLOPE        PACKAGE HILLSLOPE       CONNECTED TO MODEL HILLSLOPE        PACKAGE CHD              ON UNIT   1015 AT TIME STEP      1, STRESS PERIOD      1
1
  HEAD IN LAYER   1 AT END OF TIME STEP   1 IN STRESS PERIOD    1
  ---------------------------------------------------------------------------

            1           2           3           4           5           6           7           8           9          10
           11          12
 ................................................................................................................................................
   1    178.9       178.9       178.9       178.9       178.9       178.9       178.9       178.9       178.9       178.9    
        178.9       178.9    
   2    178.8      4.6512E+04  5.6792E+04  6.6680E+04  7.6461E+04  7.2550E+04  7.0400E+04  7.0258E+04  6.4677E+04  6.0069E+04
       4.5484E+04   178.8    
   3    178.8      5.6692E+04  7.3881E+04  8.5536E+04  9.7399E+04  9.8992E+04  9.5484E+04  9.0731E+04  8.4623E+04  7.8837E+04
       5.8077E+04   178.8    
   4    178.7      6.9927E+04  9.4020E+04  1.0374E+05  1.1458E+05  1.2351E+05  1.2138E+05  1.1192E+05  1.0147E+05  9.1780E+04
       6.6259E+04   178.7    
   5    178.7      7.8141E+04  1.0290E+05  1.1869E+05  1.3027E+05  1.3688E+05  1.3720E+05  1.2637E+05  1.1338E+05  9.6425E+04
       7.4134E+04   178.7    
   6    178.6      9.0826E+04  1.1651E+05  1.3514E+05  1.4890E+05  1.5329E+05  1.5432E+05  1.4032E+05  1.2408E+05  1.0465E+05
       8.1320E+04   178.6    
   7    178.6      1.0976E+05  1.2872E+05  1.5478E+05  1.7563E+05  1.6912E+05  1.6489E+05  1.5550E+05  1.3703E+05  1.1628E+05
       8.6645E+04   178.6    
   8    178.5      1.0478E+05  1.3303E+05  1.5965E+05  1.8503E+05  1.8246E+05  1.7754E+05  1.7054E+05  1.5052E+05  1.2579E+05
       9.5680E+04   178.5    
   9    178.5      1.0718E+05  1.3724E+05  1.6292E+05  1.8073E+05  1.9014E+05  1.9140E+05  1.9835E+05  1.6691E+05  1.3889E+05
       1.0278E+05   178.5    
  10    178.5      1.0914E+05  1.4258E+05  1.7035E+05  1.8454E+05  1.9722E+05  1.9934E+05  2.0612E+05  1.7012E+05  1.3884E+05
       1.0466E+05   178.5    
  11    178.4      1.1881E+05  1.4697E+05  1.7223E+05  1.8567E+05  1.9532E+05  2.0175E+05  1.9329E+05  1.6791E+05  1.3940E+05
       1.0354E+05   178.4    
  12    178.4      1.4350E+05  1.5303E+05  1.7185E+05  1.8829E+05  1.9621E+05  2.0104E+05  1.9117E+05  1.6790E+05  1.4026E+05
       1.0557E+05   178.4    
  13    178.3      1.2040E+05  1.4839E+05  1.6781E+05  1.8195E+05  1.9112E+05  1.9748E+05  1.8755E+05  1.6837E+05  1.4301E+05
       1.1276E+05   178.3    
  14    178.3      1.1344E+05  1.4203E+05  1.6584E+05  1.7910E+05  1.8714E+05  1.8984E+05  1.8615E+05  1.6697E+05  1.4116E+05
       1.1016E+05   178.3    
  15    178.2      1.1128E+05  1.4002E+05  1.6169E+05  1.7636E+05  1.8721E+05  1.8849E+05  1.8459E+05  1.6840E+05  1.4400E+05
       1.1162E+05   178.2    
  16    178.2      1.2150E+05  1.4459E+05  1.6004E+05  1.7301E+05  1.8553E+05  1.8763E+05  1.8184E+05  1.6769E+05  1.5415E+05
       1.1629E+05   178.2    
  17    178.2      1.1039E+05  1.3585E+05  1.5487E+05  1.6944E+05  1.7981E+05  1.8731E+05  1.7953E+05  1.6367E+05  1.4417E+05
       1.1690E+05   178.2    
  18    178.1      1.0217E+05  1.3065E+05  1.5264E+05  1.6931E+05  1.7663E+05  1.7951E+05  1.7308E+05  1.6138E+05  1.4136E+05
       1.0989E+05   178.1    
  19    178.1      9.5732E+04  1.2730E+05  1.5526E+05  1.6933E+05  1.7704E+05  1.7863E+05  1.7114E+05  1.6429E+05  1.4383E+05
       1.1184E+05   178.1    
  20    178.0      9.2512E+04  1.2740E+05  1.5744E+05  1.7520E+05  1.7361E+05  1.7184E+05  1.6835E+05  1.7064E+05  1.3339E+05
       1.0203E+05   178.0    
  21    178.0      8.8016E+04  1.2579E+05  1.4196E+05  1.5707E+05  1.7013E+05  1.6294E+05  1.5571E+05  1.4289E+05  1.1632E+05
       8.8646E+04   178.0    
  22    177.9      7.8132E+04  1.1494E+05  1.2466E+05  1.3894E+05  1.5002E+05  1.4213E+05  1.4543E+05  1.2612E+05  1.0007E+05
       7.3023E+04   177.9    
  23    177.9      5.9582E+04  8.4039E+04  1.0262E+05  1.1091E+05  1.0966E+05  1.0601E+05  1.0379E+05  9.1726E+04  7.4889E+04
       5.6652E+04   177.9    
  24    177.9       177.9       177.9       177.9       177.9       177.9       177.9       177.9       177.9       177.9    
        177.9       177.9    

 HEAD WILL BE SAVED ON UNIT 1016 AT END OF TIME STEP    1, STRESS PERIOD    1


  VOLUME BUDGET FOR ENTIRE MODEL AT END OF TIME STEP    1, STRESS PERIOD   1
  ---------------------------------------------------------------------------------------------------

     CUMULATIVE VOLUME      L**3       RATES FOR THIS TIME STEP      L**3/T          PACKAGE NAME    
     ------------------                 ------------------------                     ----------------

           IN:                                      IN:
           ---                                      ---
                 RCH =     8692328.9183                   RCH =     8692328.9183     RCH_0                            
                 CHD =           0.0000                   CHD =           0.0000     CHD                              

            TOTAL IN =     8692328.9183              TOTAL IN =     8692328.9183

          OUT:                                     OUT:
          ----                                     ----
                 RCH =           0.0000                   RCH =           0.0000     RCH_0                            
                 CHD =     8692328.9176                   CHD =     8692328.9176     CHD                              

           TOTAL OUT =     8692328.9176             TOTAL OUT =     8692328.9176

            IN - OUT =       7.2306E-04              IN - OUT =       7.2306E-04

 PERCENT DISCREPANCY =           0.00     PERCENT DISCREPANCY =           0.00




         TIME SUMMARY AT END OF TIME STEP    1 IN STRESS PERIOD    1
                    SECONDS     MINUTES      HOURS       DAYS        YEARS
                    -----------------------------------------------------------
   TIME STEP LENGTH  86400.      1440.0      24.000      1.0000     2.73785E-03
 STRESS PERIOD TIME  86400.      1440.0      24.000      1.0000     2.73785E-03
         TOTAL TIME  86400.      1440.0      24.000      1.0000     2.73785E-03


end timestep


start timestep kper="2" kstp="1" mode="normal"


 END OF FILE DETECTED IN OUTPUT CONTROL.
 CURRENT OUTPUT CONTROL SETTINGS WILL BE 
 REPEATED UNTIL THE END OF THE SIMULATION.

 OUTPUT CONTROL FOR STRESS PERIOD 2 IS REPEATED USING SETTINGS FROM A PREVIOUS STRESS PERIOD.
 UBDSV1 SAVING     FLOW-JA-FACE ON UNIT   1015 AT TIME STEP      1, STRESS PERIOD      2
 UBDSV06 SAVING              CHD IN MODEL HILLSLOPE        PACKAGE HILLSLOPE       CONNECTED TO MODEL HILLSLOPE        PACKAGE CHD              ON UNIT   1015 AT TIME STEP      1, STRESS PERIOD      2
1
  HEAD IN LAYER   1 AT END OF TIME STEP   1 IN STRESS PERIOD    2
  ---------------------------------------------------------------------------

            1           2           3           4           5           6           7           8           9          10
           11          12
 ................................................................................................................................................
   1    178.9       178.9       178.9       178.9       178.9       178.9       178.9       178.9       178.9       178.9    
        178.9       178.9    
   2    178.8      4.9124E+04  6.0041E+04  7.0507E+04  8.0855E+04  7.6675E+04  7.4331E+04  7.4078E+04  6.8164E+04  6.3273E+04
       4.7856E+04   178.8    
   3    178.8      6.0094E+04  7.8390E+04  9.0642E+04  1.0306E+05  1.0468E+05  1.0090E+05  9.5812E+04  8.9301E+04  8.3176E+04
       6.1199E+04   178.8    
   4    178.7      7.4332E+04  1.0025E+05  1.1016E+05  1.2142E+05  1.3068E+05  1.2834E+05  1.1833E+05  1.0722E+05  9.6998E+04
       6.9922E+04   178.7    
   5    178.7      8.3206E+04  1.0954E+05  1.2618E+05  1.3833E+05  1.4515E+05  1.4533E+05  1.3377E+05  1.1993E+05  1.0191E+05
       7.8227E+04   178.7    
   6    178.6      9.6963E+04  1.2421E+05  1.4397E+05  1.5850E+05  1.6290E+05  1.6385E+05  1.4881E+05  1.3145E+05  1.1072E+05
       8.5879E+04   178.6    
   7    178.6      1.1773E+05  1.3751E+05  1.6527E+05  1.8753E+05  1.8011E+05  1.7534E+05  1.6516E+05  1.4537E+05  1.2315E+05
       9.1676E+04   178.6    
   8    178.5      1.1194E+05  1.4202E+05  1.7040E+05  1.9765E+05  1.9444E+05  1.8909E+05  1.8161E+05  1.5996E+05  1.3342E+05
       1.0131E+05   178.5    
   9    178.5      1.1438E+05  1.4644E+05  1.7374E+05  1.9270E+05  2.0256E+05  2.0407E+05  2.1197E+05  1.7762E+05  1.4743E+05
       1.0891E+05   178.5    
  10    178.5      1.1680E+05  1.5227E+05  1.8160E+05  1.9659E+05  2.1000E+05  2.1245E+05  2.2021E+05  1.8112E+05  1.4744E+05
       1.1093E+05   178.5    
  11    178.4      1.2787E+05  1.5736E+05  1.8385E+05  1.9779E+05  2.0787E+05  2.1464E+05  2.0571E+05  1.7849E+05  1.4798E+05
       1.0984E+05   178.4    
  12    178.4      1.5611E+05  1.6419E+05  1.8338E+05  2.0049E+05  2.0862E+05  2.1372E+05  2.0312E+05  1.7825E+05  1.4882E+05
       1.1204E+05   178.4    
  13    178.3      1.2936E+05  1.5853E+05  1.7870E+05  1.9346E+05  2.0302E+05  2.0967E+05  1.9906E+05  1.7861E+05  1.5169E+05
       1.1982E+05   178.3    
  14    178.3      1.2097E+05  1.5122E+05  1.7617E+05  1.9013E+05  1.9860E+05  2.0145E+05  1.9753E+05  1.7717E+05  1.4984E+05
       1.1690E+05   178.3    
  15    178.2      1.1836E+05  1.4876E+05  1.7156E+05  1.8706E+05  1.9848E+05  1.9992E+05  1.9590E+05  1.7886E+05  1.5308E+05
       1.1853E+05   178.2    
  16    178.2      1.2919E+05  1.5341E+05  1.6971E+05  1.8349E+05  1.9676E+05  1.9902E+05  1.9305E+05  1.7829E+05  1.6440E+05
       1.2372E+05   178.2    
  17    178.2      1.1711E+05  1.4408E+05  1.6427E+05  1.7977E+05  1.9084E+05  1.9888E+05  1.9069E+05  1.7407E+05  1.5352E+05
       1.2440E+05   178.2    
  18    178.1      1.0836E+05  1.3859E+05  1.6198E+05  1.7972E+05  1.8761E+05  1.9077E+05  1.8415E+05  1.7186E+05  1.5057E+05
       1.1708E+05   178.1    
  19    178.1      1.0166E+05  1.3521E+05  1.6488E+05  1.8001E+05  1.8824E+05  1.9005E+05  1.8248E+05  1.7549E+05  1.5349E+05
       1.1938E+05   178.1    
  20    178.0      9.8413E+04  1.3553E+05  1.6754E+05  1.8668E+05  1.8503E+05  1.8325E+05  1.8002E+05  1.8358E+05  1.4277E+05
       1.0888E+05   178.0    
  21    178.0      9.3844E+04  1.3424E+05  1.5134E+05  1.6754E+05  1.8170E+05  1.7403E+05  1.6658E+05  1.5308E+05  1.2437E+05
       9.4550E+04   178.0    
  22    177.9      8.3437E+04  1.2298E+05  1.3309E+05  1.4836E+05  1.6081E+05  1.5209E+05  1.5593E+05  1.3496E+05  1.0682E+05
       7.7896E+04   177.9    
  23    177.9      6.3583E+04  8.9680E+04  1.0949E+05  1.1849E+05  1.1732E+05  1.1340E+05  1.1104E+05  9.8024E+04  7.9904E+04
       6.0417E+04   177.9    
  24    177.9       177.9       177.9       177.9       177.9       177.9       177.9       177.9       177.9       177.9    
        177.9       177.9    

 HEAD WILL BE SAVED ON UNIT 1016 AT END OF TIME STEP    1, STRESS PERIOD    2


  VOLUME BUDGET FOR ENTIRE MODEL AT END OF TIME STEP    1, STRESS PERIOD   2
  ---------------------------------------------------------------------------------------------------

     CUMULATIVE VOLUME      L**3       RATES FOR THIS TIME STEP      L**3/T          PACKAGE NAME    
     ------------------                 ------------------------                     ----------------

           IN:                                      IN:
           ---                                      ---
                 RCH =    17944379.9668                   RCH =     9252051.0485     RCH_0                            
                 CHD =           0.0000                   CHD =           0.0000     CHD                              

            TOTAL IN =    17944379.9668              TOTAL IN =     9252051.0485

          OUT:                                     OUT:
          ----                                     ----
                 RCH =           0.0000                   RCH =           0.0000     RCH_0                            
                 CHD =    17944379.9658                   CHD =     9252051.0483     CHD                              

           TOTAL OUT =    17944379.9658             TOTAL OUT =     9252051.0483

            IN - OUT =       9.3416E-04              IN - OUT =       2.1110E-04

 PERCENT DISCREPANCY =           0.00     PERCENT DISCREPANCY =           0.00




         TIME SUMMARY AT END OF TIME STEP    1 IN STRESS PERIOD    2
                    SECONDS     MINUTES      HOURS       DAYS        YEARS
                    -----------------------------------------------------------
   TIME STEP LENGTH  86400.      1440.0      24.000      1.0000     2.73785E-03
 STRESS PERIOD TIME  86400.      1440.0      24.000      1.0000     2.73785E-03
         TOTAL TIME 1.72800E+05  2880.0      48.000      2.0000     5.47570E-03


end timestep


start timestep kper="3" kstp="1" mode="normal"


 OUTPUT CONTROL FOR STRESS PERIOD 3 IS REPEATED USING SETTINGS FROM A PREVIOUS STRESS PERIOD.
 UBDSV1 SAVING     FLOW-JA-FACE ON UNIT   1015 AT TIME STEP      1, STRESS PERIOD      3
 UBDSV06 SAVING              CHD IN MODEL HILLSLOPE        PACKAGE HILLSLOPE       CONNECTED TO MODEL HILLSLOPE        PACKAGE CHD              ON UNIT   1015 AT TIME STEP      1, STRESS PERIOD      3
1
  HEAD IN LAYER   1 AT END OF TIME STEP   1 IN STRESS PERIOD    3
  ---------------------------------------------------------------------------

            1           2           3           4           5           6           7           8           9          10
           11          12
 ................................................................................................................................................
   1    178.9       178.9       178.9       178.9       178.9       178.9       178.9       178.9       178.9       178.9    
        178.9       178.9    
   2    178.8      6.5999E+04  8.1077E+04  9.5287E+04  1.0913E+05  1.0329E+05  9.9700E+04  9.8839E+04  9.0890E+04  8.4150E+04
       6.3371E+04   178.8    
   3    178.8      8.2077E+04  1.0756E+05  1.2352E+05  1.3955E+05  1.4146E+05  1.3573E+05  1.2858E+05  1.1954E+05  1.1117E+05
       8.1473E+04   178.8    
   4    178.7      1.0269E+05  1.4057E+05  1.5123E+05  1.6496E+05  1.7628E+05  1.7272E+05  1.5955E+05  1.4405E+05  1.3030E+05
       9.3356E+04   178.7    
   5    178.7      1.1524E+05  1.5165E+05  1.7352E+05  1.8913E+05  1.9732E+05  1.9664E+05  1.8055E+05  1.6141E+05  1.3661E+05
       1.0417E+05   178.7    
   6    178.6      1.3513E+05  1.7258E+05  1.9913E+05  2.1817E+05  2.2273E+05  2.2328E+05  2.0169E+05  1.7736E+05  1.4863E+05
       1.1444E+05   178.6    
   7    178.6      1.6615E+05  1.9178E+05  2.3043E+05  2.6034E+05  2.4763E+05  2.3954E+05  2.2439E+05  1.9661E+05  1.6560E+05
       1.2285E+05   178.6    
   8    178.5      1.5572E+05  1.9713E+05  2.3645E+05  2.7465E+05  2.6768E+05  2.5905E+05  2.4809E+05  2.1708E+05  1.7998E+05
       1.3600E+05   178.5    
   9    178.5      1.5800E+05  2.0257E+05  2.3992E+05  2.6568E+05  2.7794E+05  2.7996E+05  2.9158E+05  2.4164E+05  1.9920E+05
       1.4648E+05   178.5    
  10    178.5      1.6216E+05  2.1064E+05  2.5009E+05  2.6994E+05  2.8750E+05  2.9101E+05  3.0266E+05  2.4685E+05  1.9958E+05
       1.4925E+05   178.5    
  11    178.4      1.7950E+05  2.1866E+05  2.5440E+05  2.7164E+05  2.8435E+05  2.9299E+05  2.8070E+05  2.4278E+05  2.0055E+05
       1.4860E+05   178.4    
  12    178.4      2.2403E+05  2.2868E+05  2.5264E+05  2.7499E+05  2.8482E+05  2.9190E+05  2.7677E+05  2.4206E+05  2.0189E+05
       1.5234E+05   178.4    
  13    178.3      1.8007E+05  2.1791E+05  2.4410E+05  2.6358E+05  2.7609E+05  2.8502E+05  2.7060E+05  2.4229E+05  2.0590E+05
       1.6435E+05   178.3    
  14    178.3      1.6488E+05  2.0570E+05  2.3849E+05  2.5748E+05  2.6912E+05  2.7343E+05  2.6864E+05  2.4087E+05  2.0398E+05
       1.5910E+05   178.3    
  15    178.2      1.6028E+05  2.0107E+05  2.3136E+05  2.5252E+05  2.6797E+05  2.7087E+05  2.6658E+05  2.4428E+05  2.0947E+05
       1.6155E+05   178.2    
  16    178.2      1.7460E+05  2.0642E+05  2.2834E+05  2.4753E+05  2.6590E+05  2.6941E+05  2.6260E+05  2.4385E+05  2.2735E+05
       1.6961E+05   178.2    
  17    178.2      1.5768E+05  1.9387E+05  2.2128E+05  2.4268E+05  2.5822E+05  2.6983E+05  2.5919E+05  2.3773E+05  2.1061E+05
       1.7039E+05   178.2    
  18    178.1      1.4605E+05  1.8670E+05  2.1857E+05  2.4289E+05  2.5415E+05  2.5904E+05  2.5107E+05  2.3514E+05  2.0632E+05
       1.6083E+05   178.1    
  19    178.1      1.3758E+05  1.8300E+05  2.2290E+05  2.4418E+05  2.5553E+05  2.5856E+05  2.5005E+05  2.4185E+05  2.1124E+05
       1.6531E+05   178.1    
  20    178.0      1.3406E+05  1.8466E+05  2.2813E+05  2.5486E+05  2.5304E+05  2.5104E+05  2.4853E+05  2.5751E+05  1.9779E+05
       1.4980E+05   178.0    
  21    178.0      1.2894E+05  1.8513E+05  2.0766E+05  2.3005E+05  2.5045E+05  2.3986E+05  2.3042E+05  2.1250E+05  1.7177E+05
       1.2964E+05   178.0    
  22    177.9      1.1522E+05  1.7096E+05  1.8371E+05  2.0500E+05  2.2552E+05  2.1109E+05  2.1703E+05  1.8713E+05  1.4688E+05
       1.0705E+05   177.9    
  23    177.9      8.7595E+04  1.2357E+05  1.5103E+05  1.6464E+05  1.6336E+05  1.5736E+05  1.5394E+05  1.3547E+05  1.0996E+05
       8.3464E+04   177.9    
  24    177.9       177.9       177.9       177.9       177.9       177.9       177.9       177.9       177.9       177.9    
        177.9       177.9    

 HEAD WILL BE SAVED ON UNIT 1016 AT END OF TIME STEP    1, STRESS PERIOD    3


  VOLUME BUDGET FOR ENTIRE MODEL AT END OF TIME STEP    1, STRESS PERIOD   3
  ---------------------------------------------------------------------------------------------------

     CUMULATIVE VOLUME      L**3       RATES FOR THIS TIME STEP      L**3/T          PACKAGE NAME    
     ------------------                 ------------------------                     ----------------

           IN:                                      IN:
           ---                                      ---
                 RCH =    30606951.3355                   RCH =    12662571.3687     RCH_0                            
                 CHD =           0.0000                   CHD =           0.0000     CHD                              

            TOTAL IN =    30606951.3355              TOTAL IN =    12662571.3687

          OUT:                                     OUT:
          ----                                     ----
                 RCH =           0.0000                   RCH =           0.0000     RCH_0                            
                 CHD =    30606951.3346                   CHD =    12662571.3687     CHD                              

           TOTAL OUT =    30606951.3346             TOTAL OUT =    12662571.3687

            IN - OUT =       9.0486E-04              IN - OUT =      -2.9299E-05

 PERCENT DISCREPANCY =           0.00     PERCENT DISCREPANCY =          -0.00




         TIME SUMMARY AT END OF TIME STEP    1 IN STRESS PERIOD    3
                    SECONDS     MINUTES      HOURS       DAYS        YEARS
                    -----------------------------------------------------------
   TIME STEP LENGTH  86400.      1440.0      24.000      1.0000     2.73785E-03
 STRESS PERIOD TIME  86400.      1440.0      24.000      1.0000     2.73785E-03
         TOTAL TIME 2.59200E+05  4320.0      72.000      3.0000     8.21355E-03


end timestep


start timestep kper="4" kstp="1" mode="normal"


 OUTPUT CONTROL FOR STRESS PERIOD 4 IS REPEATED USING SETTINGS FROM A PREVIOUS STRESS PERIOD.
 UBDSV1 SAVING     FLOW-JA-FACE ON UNIT   1015 AT TIME STEP      1, STRESS PERIOD      4
 UBDSV06 SAVING              CHD IN MODEL HILLSLOPE        PACKAGE HILLSLOPE       CONNECTED TO MODEL HILLSLOPE        PACKAGE CHD              ON UNIT   1015 AT TIME STEP      1, STRESS PERIOD      4
1
  HEAD IN LAYER   1 AT END OF TIME STEP   1 IN STRESS PERIOD    4
  ---------------------------------------------------------------------------

            1           2           3           4           5           6           7           8           9          10
           11          12
 ................................................................................................................................................
   1    178.9       178.9       178.9       178.9       178.9       178.9       178.9       178.9       178.9       178.9    
        178.9       178.9    
   2    178.8      9.9088E+04  1.2229E+05  1.4407E+05  1.6476E+05  1.5578E+05  1.4988E+05  1.4824E+05  1.3655E+05  1.2631E+05
       9.4820E+04   178.8    
   3    178.8      1.2472E+05  1.6408E+05  1.8750E+05  2.1113E+05  2.1389E+05  2.0430E+05  1.9345E+05  1.7972E+05  1.6703E+05
       1.2220E+05   178.8    
   4    178.7      1.5714E+05  2.1760E+05  2.3019E+05  2.4915E+05  2.6490E+05  2.5945E+05  2.4076E+05  2.1665E+05  1.9572E+05
       1.3964E+05   178.7    
   5    178.7      1.7581E+05  2.3155E+05  2.6358E+05  2.8613E+05  2.9756E+05  2.9572E+05  2.7119E+05  2.4219E+05  2.0420E+05
       1.5501E+05   178.7    
   6    178.6      2.0614E+05  2.6355E+05  3.0289E+05  3.3038E+05  3.3592E+05  3.3632E+05  3.0247E+05  2.6526E+05  2.2157E+05
       1.6980E+05   178.6    
   7    178.6      2.5373E+05  2.9226E+05  3.5196E+05  3.9496E+05  3.7361E+05  3.5982E+05  3.3556E+05  2.9324E+05  2.4644E+05
       1.8247E+05   178.6    
   8    178.5      2.3599E+05  2.9884E+05  3.5874E+05  4.1635E+05  4.0351E+05  3.8824E+05  3.7016E+05  3.2306E+05  2.6747E+05
       2.0194E+05   178.5    
   9    178.5      2.3759E+05  3.0573E+05  3.6213E+05  4.0029E+05  4.1705E+05  4.1841E+05  4.3351E+05  3.5886E+05  2.9574E+05
       2.1748E+05   178.5    
  10    178.5      2.4246E+05  3.1635E+05  3.7608E+05  4.0532E+05  4.3065E+05  4.3458E+05  4.4976E+05  3.6707E+05  2.9662E+05
       2.2135E+05   178.5    
  11    178.4      2.6604E+05  3.2671E+05  3.8327E+05  4.0790E+05  4.2610E+05  4.3834E+05  4.1912E+05  3.6223E+05  2.9930E+05
       2.2168E+05   178.4    
  12    178.4      3.2816E+05  3.3924E+05  3.7799E+05  4.1257E+05  4.2697E+05  4.3852E+05  4.1546E+05  3.6233E+05  3.0244E+05
       2.2880E+05   178.4    
  13    178.3      2.6488E+05  3.2236E+05  3.6293E+05  3.9335E+05  4.1280E+05  4.2712E+05  4.0637E+05  3.6330E+05  3.0906E+05
       2.4946E+05   178.3    
  14    178.3      2.4219E+05  3.0364E+05  3.5294E+05  3.8292E+05  4.0160E+05  4.0965E+05  4.0431E+05  3.6213E+05  3.0672E+05
       2.3938E+05   178.3    
  15    178.2      2.3580E+05  2.9659E+05  3.4202E+05  3.7503E+05  3.9897E+05  4.0547E+05  4.0145E+05  3.6870E+05  3.1564E+05
       2.4274E+05   178.2    
  16    178.2      2.5692E+05  3.0427E+05  3.3739E+05  3.6738E+05  3.9620E+05  4.0246E+05  3.9435E+05  3.6699E+05  3.4356E+05
       2.5539E+05   178.2    
  17    178.2      2.3295E+05  2.8640E+05  3.2743E+05  3.6010E+05  3.8433E+05  4.0301E+05  3.8748E+05  3.5615E+05  3.1627E+05
       2.5598E+05   178.2    
  18    178.1      2.1656E+05  2.7631E+05  3.2377E+05  3.6043E+05  3.7761E+05  3.8544E+05  3.7432E+05  3.5110E+05  3.0870E+05
       2.4157E+05   178.1    
  19    178.1      2.0431E+05  2.7163E+05  3.3034E+05  3.6229E+05  3.7922E+05  3.8384E+05  3.7218E+05  3.6051E+05  3.1562E+05
       2.4976E+05   178.1    
  20    178.0      1.9992E+05  2.7540E+05  3.3946E+05  3.7859E+05  3.7641E+05  3.7331E+05  3.6982E+05  3.8286E+05  2.9474E+05
       2.2367E+05   178.0    
  21    178.0      1.9325E+05  2.7834E+05  3.1068E+05  3.4351E+05  3.7424E+05  3.5812E+05  3.4350E+05  3.1660E+05  2.5577E+05
       1.9269E+05   178.0    
  22    177.9      1.7297E+05  2.5744E+05  2.7593E+05  3.0793E+05  3.4129E+05  3.1640E+05  3.2434E+05  2.8017E+05  2.1876E+05
       1.5973E+05   177.9    
  23    177.9      1.3131E+05  1.8537E+05  2.2746E+05  2.4939E+05  2.4652E+05  2.3621E+05  2.3071E+05  2.0289E+05  1.6444E+05
       1.2595E+05   177.9    
  24    177.9       177.9       177.9       177.9       177.9       177.9       177.9       177.9       177.9       177.9    
        177.9       177.9    

 HEAD WILL BE SAVED ON UNIT 1016 AT END OF TIME STEP    1, STRESS PERIOD    4


  VOLUME BUDGET FOR ENTIRE MODEL AT END OF TIME STEP    1, STRESS PERIOD   4
  ---------------------------------------------------------------------------------------------------

     CUMULATIVE VOLUME      L**3       RATES FOR THIS TIME STEP      L**3/T          PACKAGE NAME    
     ------------------                 ------------------------                     ----------------

           IN:                                      IN:
           ---                                      ---
                 RCH =    49576049.4844                   RCH =    18969098.1489     RCH_0                            
                 CHD =           0.0000                   CHD =           0.0000     CHD                              

            TOTAL IN =    49576049.4844              TOTAL IN =    18969098.1489

          OUT:                                     OUT:
          ----                                     ----
                 RCH =           0.0000                   RCH =           0.0000     RCH_0                            
                 CHD =    49576049.4834                   CHD =    18969098.1488     CHD                              

           TOTAL OUT =    49576049.4834             TOTAL OUT =    18969098.1488

            IN - OUT =       9.7172E-04              IN - OUT =       6.6854E-05

 PERCENT DISCREPANCY =           0.00     PERCENT DISCREPANCY =           0.00




         TIME SUMMARY AT END OF TIME STEP    1 IN STRESS PERIOD    4
                    SECONDS     MINUTES      HOURS       DAYS        YEARS
                    -----------------------------------------------------------
   TIME STEP LENGTH  86400.      1440.0      24.000      1.0000     2.73785E-03
 STRESS PERIOD TIME  86400.      1440.0      24.000      1.0000     2.73785E-03
         TOTAL TIME 3.45600E+05  5760.0      96.000      4.0000     1.09514E-02


end timestep


start timestep kper="5" kstp="1" mode="normal"


 OUTPUT CONTROL FOR STRESS PERIOD 5 IS REPEATED USING SETTINGS FROM A PREVIOUS STRESS PERIOD.
 UBDSV1 SAVING     FLOW-JA-FACE ON UNIT   1015 AT TIME STEP      1, STRESS PERIOD      5
 UBDSV06 SAVING              CHD IN MODEL HILLSLOPE        PACKAGE HILLSLOPE       CONNECTED TO MODEL HILLSLOPE        PACKAGE CHD              ON UNIT   1015 AT TIME STEP      1, STRESS PERIOD      5
1
  HEAD IN LAYER   1 AT END OF TIME STEP   1 IN STRESS PERIOD    5
  ---------------------------------------------------------------------------

            1           2           3           4           5           6           7           8           9          10
           11          12
 ................................................................................................................................................
   1    178.9       178.9       178.9       178.9       178.9       178.9       178.9       178.9       178.9       178.9    
        178.9       178.9    
   2    178.8      1.2978E+05  1.6039E+05  1.8961E+05  2.1684E+05  2.0515E+05  1.9739E+05  1.9567E+05  1.8077E+05  1.6746E+05
       1.2568E+05   178.8    
   3    178.8      1.6342E+05  2.1524E+05  2.4609E+05  2.7777E+05  2.8183E+05  2.6883E+05  2.5503E+05  2.3736E+05  2.2078E+05
       1.6174E+05   178.8    
   4    178.7      2.0567E+05  2.8515E+05  3.0114E+05  3.2601E+05  3.4688E+05  3.4046E+05  3.1737E+05  2.8537E+05  2.5752E+05
       1.8374E+05   178.7    
   5    178.7      2.2889E+05  3.0189E+05  3.4362E+05  3.7326E+05  3.8878E+05  3.8681E+05  3.5508E+05  3.1763E+05  2.6753E+05
       2.0314E+05   178.7    
   6    178.6      2.6709E+05  3.4299E+05  3.9378E+05  4.2906E+05  4.3686E+05  4.3821E+05  3.9400E+05  3.4579E+05  2.8898E+05
       2.2157E+05   178.6    
   7    178.6      3.2565E+05  3.7826E+05  4.5701E+05  5.1030E+05  4.8391E+05  4.6638E+05  4.3477E+05  3.8028E+05  3.2035E+05
       2.3733E+05   178.6    
   8    178.5      3.0435E+05  3.8630E+05  4.6423E+05  5.3725E+05  5.2180E+05  5.0086E+05  4.7633E+05  4.1673E+05  3.4620E+05
       2.6224E+05   178.5    
   9    178.5      3.0575E+05  3.9480E+05  4.6809E+05  5.1681E+05  5.3815E+05  5.3767E+05  5.5263E+05  4.6088E+05  3.8186E+05
       2.8189E+05   178.5    
  10    178.5      3.0904E+05  4.0654E+05  4.8550E+05  5.2340E+05  5.5588E+05  5.5875E+05  5.7340E+05  4.7147E+05  3.8279E+05
       2.8632E+05   178.5    
  11    178.4      3.3301E+05  4.1612E+05  4.9440E+05  5.2709E+05  5.5086E+05  5.6657E+05  5.4060E+05  4.6790E+05  3.8781E+05
       2.8740E+05   178.4    
  12    178.4      3.9817E+05  4.2778E+05  4.8550E+05  5.3329E+05  5.5327E+05  5.6943E+05  5.3992E+05  4.7041E+05  3.9320E+05
       2.9768E+05   178.4    
  13    178.3      3.3074E+05  4.0923E+05  4.6566E+05  5.0778E+05  5.3477E+05  5.5500E+05  5.2924E+05  4.7289E+05  4.0234E+05
       3.2599E+05   178.3    
  14    178.3      3.0668E+05  3.8738E+05  4.5331E+05  4.9455E+05  5.2044E+05  5.3264E+05  5.2768E+05  4.7187E+05  3.9910E+05
       3.1155E+05   178.3    
  15    178.2      3.0053E+05  3.7979E+05  4.3989E+05  4.8464E+05  5.1698E+05  5.2732E+05  5.2395E+05  4.8081E+05  4.0977E+05
       3.1496E+05   178.2    
  16    178.2      3.2787E+05  3.9056E+05  4.3423E+05  4.7436E+05  5.1328E+05  5.2220E+05  5.1290E+05  4.7606E+05  4.4324E+05
       3.3056E+05   178.2    
  17    178.2      2.9957E+05  3.6840E+05  4.2154E+05  4.6436E+05  4.9641E+05  5.2157E+05  5.0129E+05  4.5991E+05  4.0785E+05
       3.3070E+05   178.2    
  18    178.1      2.7938E+05  3.5562E+05  4.1657E+05  4.6415E+05  4.8598E+05  4.9595E+05  4.8121E+05  4.5084E+05  3.9676E+05
       3.1122E+05   178.1    
  19    178.1      2.6287E+05  3.4920E+05  4.2429E+05  4.6469E+05  4.8623E+05  4.9149E+05  4.7533E+05  4.5925E+05  4.0358E+05
       3.2186E+05   178.1    
  20    178.0      2.5684E+05  3.5385E+05  4.3520E+05  4.8344E+05  4.8075E+05  4.7597E+05  4.6914E+05  4.7917E+05  3.7360E+05
       2.8575E+05   178.0    
  21    178.0      2.4773E+05  3.5701E+05  3.9800E+05  4.3885E+05  4.7703E+05  4.5639E+05  4.3580E+05  4.0040E+05  3.2459E+05
       2.4538E+05   178.0    
  22    177.9      2.2100E+05  3.2822E+05  3.5310E+05  3.9379E+05  4.3476E+05  4.0239E+05  4.1040E+05  3.5665E+05  2.7862E+05
       2.0405E+05   177.9    
  23    177.9      1.6777E+05  2.3699E+05  2.9217E+05  3.2074E+05  3.1497E+05  3.0098E+05  2.9401E+05  2.5910E+05  2.1042E+05
       1.6254E+05   177.9    
  24    177.9       177.9       177.9       177.9       177.9       177.9       177.9       177.9       177.9       177.9    
        177.9       177.9    

 HEAD WILL BE SAVED ON UNIT 1016 AT END OF TIME STEP    1, STRESS PERIOD    5


  VOLUME BUDGET FOR ENTIRE MODEL AT END OF TIME STEP    1, STRESS PERIOD   5
  ---------------------------------------------------------------------------------------------------

     CUMULATIVE VOLUME      L**3       RATES FOR THIS TIME STEP      L**3/T          PACKAGE NAME    
     ------------------                 ------------------------                     ----------------

           IN:                                      IN:
           ---                                      ---
                 RCH =    74030683.3762                   RCH =    24454633.8918     RCH_0                            
                 CHD =           0.0000                   CHD =           0.0000     CHD                              

            TOTAL IN =    74030683.3762              TOTAL IN =    24454633.8918

          OUT:                                     OUT:
          ----                                     ----
                 RCH =           0.0000                   RCH =           0.0000     RCH_0                            
                 CHD =    74030683.3752                   CHD =    24454633.8918     CHD                              

           TOTAL OUT =    74030683.3752             TOTAL OUT =    24454633.8918

            IN - OUT =       1.0028E-03              IN - OUT =       3.1121E-05

 PERCENT DISCREPANCY =           0.00     PERCENT DISCREPANCY =           0.00




         TIME SUMMARY AT END OF TIME STEP    1 IN STRESS PERIOD    5
                    SECONDS     MINUTES      HOURS       DAYS        YEARS
                    -----------------------------------------------------------
   TIME STEP LENGTH  86400.      1440.0      24.000      1.0000     2.73785E-03
 STRESS PERIOD TIME  86400.      1440.0      24.000      1.0000     2.73785E-03
         TOTAL TIME 4.32000E+05  7200.0      120.00      5.0000     1.36893E-02


end timestep


start timestep kper="6" kstp="1" mode="normal"


 OUTPUT CONTROL FOR STRESS PERIOD 6 IS REPEATED USING SETTINGS FROM A PREVIOUS STRESS PERIOD.
 UBDSV1 SAVING     FLOW-JA-FACE ON UNIT   1015 AT TIME STEP      1, STRESS PERIOD      6
 UBDSV06 SAVING              CHD IN MODEL HILLSLOPE        PACKAGE HILLSLOPE       CONNECTED TO MODEL HILLSLOPE        PACKAGE CHD              ON UNIT   1015 AT TIME STEP      1, STRESS PERIOD      6
1
  HEAD IN LAYER   1 AT END OF TIME STEP   1 IN STRESS PERIOD    6
  ---------------------------------------------------------------------------

            1           2           3           4           5           6           7           8           9          10
           11          12
 ................................................................................................................................................
   1    178.9       178.9       178.9       178.9       178.9       178.9       178.9       178.9       178.9       178.9    
        178.9       178.9    
   2    178.8      1.5375E+05  1.9003E+05  2.2543E+05  2.5787E+05  2.4441E+05  2.3552E+05  2.3435E+05  2.1718E+05  2.0149E+05
       1.5142E+05   178.8    
   3    178.8      1.9285E+05  2.5392E+05  2.9116E+05  3.3005E+05  3.3573E+05  3.2032E+05  3.0468E+05  2.8427E+05  2.6456E+05
       1.9437E+05   178.8    
   4    178.7      2.4170E+05  3.3390E+05  3.5451E+05  3.8514E+05  4.1101E+05  4.0460E+05  3.7872E+05  3.4068E+05  3.0705E+05
       2.1950E+05   178.7    
   5    178.7      2.6771E+05  3.5355E+05  4.0324E+05  4.3914E+05  4.5898E+05  4.5782E+05  4.2110E+05  3.7767E+05  3.1812E+05
       2.4207E+05   178.7    
   6    178.6      3.1072E+05  4.0101E+05  4.6039E+05  5.0181E+05  5.1280E+05  5.1590E+05  4.6466E+05  4.0871E+05  3.4220E+05
       2.6303E+05   178.6    
   7    178.6      3.7431E+05  4.3973E+05  5.3258E+05  5.9246E+05  5.6518E+05  5.4637E+05  5.1013E+05  4.4720E+05  3.7813E+05
       2.8055E+05   178.6    
   8    178.5      3.5351E+05  4.4977E+05  5.4073E+05  6.2329E+05  6.0876E+05  5.8410E+05  5.5486E+05  4.8738E+05  4.0677E+05
       3.0947E+05   178.5    
   9    178.5      3.5585E+05  4.6056E+05  5.4620E+05  6.0222E+05  6.2764E+05  6.2493E+05  6.3744E+05  5.3664E+05  4.4746E+05
       3.3193E+05   178.5    
  10    178.5      3.5704E+05  4.7304E+05  5.6695E+05  6.1136E+05  6.4925E+05  6.5021E+05  6.6167E+05  5.4878E+05  4.4815E+05
       3.3639E+05   178.5    
  11    178.4      3.7882E+05  4.8070E+05  5.7692E+05  6.1657E+05  6.4479E+05  6.6311E+05  6.3156E+05  5.4765E+05  4.5550E+05
       3.3775E+05   178.4    
  12    178.4      4.3981E+05  4.9037E+05  5.6565E+05  6.2447E+05  6.4945E+05  6.6913E+05  6.3506E+05  5.5316E+05  4.6292E+05
       3.5020E+05   178.4    
  13    178.3      3.7628E+05  4.7278E+05  5.4290E+05  5.9484E+05  6.2812E+05  6.5324E+05  6.2401E+05  5.5736E+05  4.7383E+05
       3.8357E+05   178.3    
  14    178.3      3.5391E+05  4.4984E+05  5.2963E+05  5.8021E+05  6.1185E+05  6.2741E+05  6.2300E+05  5.5620E+05  4.6941E+05
       3.6628E+05   178.3    
  15    178.2      3.4854E+05  4.4243E+05  5.1455E+05  5.6895E+05  6.0800E+05  6.2144E+05  6.1843E+05  5.6638E+05  4.8023E+05
       3.6919E+05   178.2    
  16    178.2      3.8005E+05  4.5579E+05  5.0801E+05  5.5609E+05  6.0305E+05  6.1397E+05  6.0354E+05  5.5783E+05  5.1477E+05
       3.8599E+05   178.2    
  17    178.2      3.4991E+05  4.3048E+05  4.9275E+05  5.4323E+05  5.8113E+05  6.1106E+05  5.8702E+05  5.3692E+05  4.7471E+05
       3.8551E+05   178.2    
  18    178.1      3.2698E+05  4.1526E+05  4.8604E+05  5.4185E+05  5.6667E+05  5.7789E+05  5.5986E+05  5.2360E+05  4.6074E+05
       3.6168E+05   178.1    
  19    178.1      3.0618E+05  4.0637E+05  4.9349E+05  5.3948E+05  5.6441E+05  5.6977E+05  5.4913E+05  5.2891E+05  4.6607E+05
       3.7317E+05   178.1    
  20    178.0      2.9786E+05  4.1035E+05  5.0370E+05  5.5742E+05  5.5455E+05  5.4845E+05  5.3771E+05  5.4126E+05  4.2771E+05
       3.2976E+05   178.0    
  21    178.0      2.8563E+05  4.1125E+05  4.5906E+05  5.0506E+05  5.4755E+05  5.2446E+05  4.9881E+05  4.5698E+05  3.7208E+05
       2.8263E+05   178.0    
  22    177.9      2.5348E+05  3.7485E+05  4.0584E+05  4.5245E+05  4.9587E+05  4.6028E+05  4.6726E+05  4.0897E+05  3.2061E+05
       2.3558E+05   177.9    
  23    177.9      1.9249E+05  2.7203E+05  3.3675E+05  3.6956E+05  3.6096E+05  3.4486E+05  3.3743E+05  2.9842E+05  2.4320E+05
       1.8929E+05   177.9    
  24    177.9       177.9       177.9       177.9       177.9       177.9       177.9       177.9       177.9       177.9    
        177.9       177.9    

 HEAD WILL BE SAVED ON UNIT 1016 AT END OF TIME STEP    1, STRESS PERIOD    6


  VOLUME BUDGET FOR ENTIRE MODEL AT END OF TIME STEP    1, STRESS PERIOD   6
  ---------------------------------------------------------------------------------------------------

     CUMULATIVE VOLUME      L**3       RATES FOR THIS TIME STEP      L**3/T          PACKAGE NAME    
     ------------------                 ------------------------                     ----------------

           IN:                                      IN:
           ---                                      ---
                 RCH =   102532709.4951                   RCH =    28502026.1188     RCH_0                            
                 CHD =           0.0000                   CHD =           0.0000     CHD                              

            TOTAL IN =   102532709.4951              TOTAL IN =    28502026.1188

          OUT:                                     OUT:
          ----                                     ----
                 RCH =           0.0000                   RCH =           0.0000     RCH_0                            
                 CHD =   102532709.4931                   CHD =    28502026.1179     CHD                              

           TOTAL OUT =   102532709.4931             TOTAL OUT =    28502026.1179

            IN - OUT =       1.9897E-03              IN - OUT =       9.8684E-04

 PERCENT DISCREPANCY =           0.00     PERCENT DISCREPANCY =           0.00




         TIME SUMMARY AT END OF TIME STEP    1 IN STRESS PERIOD    6
                    SECONDS     MINUTES      HOURS       DAYS        YEARS
                    -----------------------------------------------------------
   TIME STEP LENGTH  86400.      1440.0      24.000      1.0000     2.73785E-03
 STRESS PERIOD TIME  86400.      1440.0      24.000      1.0000     2.73785E-03
         TOTAL TIME 5.18400E+05  8640.0      144.00      6.0000     1.64271E-02


end timestep


start timestep kper="7" kstp="1" mode="normal"


 OUTPUT CONTROL FOR STRESS PERIOD 7 IS REPEATED USING SETTINGS FROM A PREVIOUS STRESS PERIOD.
 UBDSV1 SAVING     FLOW-JA-FACE ON UNIT   1015 AT TIME STEP      1, STRESS PERIOD      7
 UBDSV06 SAVING              CHD IN MODEL HILLSLOPE        PACKAGE HILLSLOPE       CONNECTED TO MODEL HILLSLOPE        PACKAGE CHD              ON UNIT   1015 AT TIME STEP      1, STRESS PERIOD      7
1
  HEAD IN LAYER   1 AT END OF TIME STEP   1 IN STRESS PERIOD    7
  ---------------------------------------------------------------------------

            1           2           3           4           5           6           7           8           9          10
           11          12
 ................................................................................................................................................
   1    178.9       178.9       178.9       178.9       178.9       178.9       178.9       178.9       178.9       178.9    
        178.9       178.9    
   2    178.8      1.6771E+05  2.0714E+05  2.4642E+05  2.8188E+05  2.6781E+05  2.5864E+05  2.5841E+05  2.4014E+05  2.2305E+05
       1.6799E+05   178.8    
   3    178.8      2.0915E+05  2.7507E+05  3.1655E+05  3.6049E+05  3.6774E+05  3.5124E+05  3.3499E+05  3.1335E+05  2.9164E+05
       2.1504E+05   178.8    
   4    178.7      2.6078E+05  3.5807E+05  3.8340E+05  4.1855E+05  4.4838E+05  4.4273E+05  4.1574E+05  3.7443E+05  3.3703E+05
       2.4159E+05   178.7    
   5    178.7      2.8769E+05  3.8031E+05  4.3501E+05  4.7531E+05  4.9880E+05  4.9904E+05  4.6002E+05  4.1376E+05  3.4873E+05
       2.6614E+05   178.7    
   6    178.6      3.3229E+05  4.3077E+05  4.9473E+05  5.3989E+05  5.5417E+05  5.5924E+05  5.0512E+05  4.4553E+05  3.7391E+05
       2.8833E+05   178.6    
   7    178.6      3.9555E+05  4.6996E+05  5.6992E+05  6.3246E+05  6.0780E+05  5.8996E+05  5.5223E+05  4.8542E+05  4.1209E+05
       3.0628E+05   178.6    
   8    178.5      3.7825E+05  4.8215E+05  5.7954E+05  6.6525E+05  6.5425E+05  6.2830E+05  5.9677E+05  5.2650E+05  4.4150E+05
       3.3737E+05   178.5    
   9    178.5      3.8229E+05  4.9539E+05  5.8734E+05  6.4671E+05  6.7511E+05  6.7049E+05  6.7964E+05  5.7750E+05  4.8441E+05
       3.6106E+05   178.5    
  10    178.5      3.8169E+05  5.0837E+05  6.1067E+05  6.5871E+05  6.9959E+05  6.9854E+05  7.0579E+05  5.9017E+05  4.8466E+05
       3.6513E+05   178.5    
  11    178.4      4.0031E+05  5.1398E+05  6.2103E+05  6.6544E+05  6.9631E+05  7.1602E+05  6.8102E+05  5.9164E+05  4.9371E+05
       3.6622E+05   178.4    
  12    178.4      4.5388E+05  5.2165E+05  6.0917E+05  6.7486E+05  7.0327E+05  7.2470E+05  6.8834E+05  5.9979E+05  5.0238E+05
       3.7943E+05   178.4    
  13    178.3      3.9835E+05  5.0662E+05  5.8564E+05  6.4369E+05  6.8085E+05  7.0888E+05  6.7789E+05  6.0538E+05  5.1399E+05
       4.1445E+05   178.3    
  14    178.3      3.7919E+05  4.8408E+05  5.7270E+05  6.2903E+05  6.6393E+05  6.8131E+05  6.7713E+05  6.0376E+05  5.0841E+05
       3.9640E+05   178.3    
  15    178.2      3.7453E+05  4.7718E+05  5.5681E+05  6.1716E+05  6.6012E+05  6.7518E+05  6.7190E+05  6.1397E+05  5.1818E+05
       3.9863E+05   178.2    
  16    178.2      4.0768E+05  4.9206E+05  5.4958E+05  6.0221E+05  6.5387E+05  6.6572E+05  6.5426E+05  6.0208E+05  5.5036E+05
       4.1512E+05   178.2    
  17    178.2      3.7786E+05  4.6504E+05  5.3232E+05  5.8695E+05  6.2790E+05  6.6011E+05  6.3396E+05  5.7799E+05  5.0922E+05
       4.1394E+05   178.2    
  18    178.1      3.5343E+05  4.4800E+05  5.2382E+05  5.8415E+05  6.1010E+05  6.2163E+05  6.0131E+05  5.6134E+05  4.9357E+05
       3.8725E+05   178.1    
  19    178.1      3.2912E+05  4.3646E+05  5.2991E+05  5.7825E+05  6.0510E+05  6.1022E+05  5.8613E+05  5.6293E+05  4.9681E+05
       3.9795E+05   178.1    
  20    178.0      3.1838E+05  4.3858E+05  5.3748E+05  5.9305E+05  5.9044E+05  5.8375E+05  5.6978E+05  5.6620E+05  4.5263E+05
       3.5131E+05   178.0    
  21    178.0      3.0307E+05  4.3555E+05  4.8761E+05  5.3573E+05  5.7946E+05  5.5618E+05  5.2738E+05  4.8211E+05  3.9422E+05
       3.0087E+05   178.0    
  22    177.9      2.6741E+05  3.9347E+05  4.2908E+05  4.7846E+05  5.2024E+05  4.8540E+05  4.9088E+05  4.3253E+05  3.4079E+05
       2.5117E+05   177.9    
  23    177.9      2.0314E+05  2.8715E+05  3.5652E+05  3.9088E+05  3.8056E+05  3.6415E+05  3.5720E+05  3.1711E+05  2.5946E+05
       2.0317E+05   177.9    
  24    177.9       177.9       177.9       177.9       177.9       177.9       177.9       177.9       177.9       177.9    
        177.9       177.9    

 HEAD WILL BE SAVED ON UNIT 1016 AT END OF TIME STEP    1, STRESS PERIOD    7


  VOLUME BUDGET FOR ENTIRE MODEL AT END OF TIME STEP    1, STRESS PERIOD   7
  ---------------------------------------------------------------------------------------------------

     CUMULATIVE VOLUME      L**3       RATES FOR THIS TIME STEP      L**3/T          PACKAGE NAME    
     ------------------                 ------------------------                     ----------------

           IN:                                      IN:
           ---                                      ---
                 RCH =   133174327.8738                   RCH =    30641618.3787     RCH_0                            
                 CHD =           0.0000                   CHD =           0.0000     CHD                              

            TOTAL IN =   133174327.8738              TOTAL IN =    30641618.3787

          OUT:                                     OUT:
          ----                                     ----
                 RCH =           0.0000                   RCH =           0.0000     RCH_0                            
                 CHD =   133174327.8716                   CHD =    30641618.3785     CHD                              

           TOTAL OUT =   133174327.8716             TOTAL OUT =    30641618.3785

            IN - OUT =       2.2240E-03              IN - OUT =       2.3434E-04

 PERCENT DISCREPANCY =           0.00     PERCENT DISCREPANCY =           0.00




         TIME SUMMARY AT END OF TIME STEP    1 IN STRESS PERIOD    7
                    SECONDS     MINUTES      HOURS       DAYS        YEARS
                    -----------------------------------------------------------
   TIME STEP LENGTH  86400.      1440.0      24.000      1.0000     2.73785E-03
 STRESS PERIOD TIME  86400.      1440.0      24.000      1.0000     2.73785E-03
         TOTAL TIME 6.04800E+05  10080.      168.00      7.0000     1.91650E-02


end timestep


start timestep kper="8" kstp="1" mode="normal"


 OUTPUT CONTROL FOR STRESS PERIOD 8 IS REPEATED USING SETTINGS FROM A PREVIOUS STRESS PERIOD.
 UBDSV1 SAVING     FLOW-JA-FACE ON UNIT   1015 AT TIME STEP      1, STRESS PERIOD      8
 UBDSV06 SAVING              CHD IN MODEL HILLSLOPE        PACKAGE HILLSLOPE       CONNECTED TO MODEL HILLSLOPE        PACKAGE CHD              ON UNIT   1015 AT TIME STEP      1, STRESS PERIOD      8
1
  HEAD IN LAYER   1 AT END OF TIME STEP   1 IN STRESS PERIOD    8
  ---------------------------------------------------------------------------

            1           2           3           4           5           6           7           8           9          10
           11          12
 ................................................................................................................................................
   1    178.9       178.9       178.9       178.9       178.9       178.9       178.9       178.9       178.9       178.9    
        178.9       178.9    
   2    178.8      1.7338E+05  2.1392E+05  2.5494E+05  2.9143E+05  2.7760E+05  2.6873E+05  2.6951E+05  2.5102E+05  2.3326E+05
       1.7616E+05   178.8    
   3    178.8      2.1496E+05  2.8227E+05  3.2587E+05  3.7251E+05  3.8104E+05  3.6444E+05  3.4841E+05  3.2665E+05  3.0384E+05
       2.2489E+05   178.8    
   4    178.7      2.6663E+05  3.6365E+05  3.9283E+05  4.3088E+05  4.6325E+05  4.5863E+05  4.3168E+05  3.8937E+05  3.4997E+05
       2.5164E+05   178.7    
   5    178.7      2.9319E+05  3.8780E+05  4.4484E+05  4.8758E+05  5.1363E+05  5.1531E+05  4.7601E+05  4.2929E+05  3.6209E+05
       2.7718E+05   178.7    
   6    178.6      3.3722E+05  4.3868E+05  5.0401E+05  5.5079E+05  5.6782E+05  5.7453E+05  5.2056E+05  4.6043E+05  3.8730E+05
       2.9966E+05   178.6    
   7    178.6      3.9714E+05  4.7651E+05  5.7804E+05  6.4048E+05  6.2007E+05  6.0435E+05  5.6727E+05  4.9997E+05  4.2599E+05
       3.1716E+05   178.6    
   8    178.5      3.8437E+05  4.9058E+05  5.8931E+05  6.7380E+05  6.6721E+05  6.4163E+05  6.0968E+05  5.4012E+05  4.5484E+05
       3.4894E+05   178.5    
   9    178.5      3.9022E+05  5.0593E+05  5.9945E+05  6.5918E+05  6.8935E+05  6.8335E+05  6.8923E+05  5.9055E+05  4.9787E+05
       3.7271E+05   178.5    
  10    178.5      3.8838E+05  5.1917E+05  6.2435E+05  6.7366E+05  7.1549E+05  7.1275E+05  7.1600E+05  6.0302E+05  4.9766E+05
       3.7623E+05   178.5    
  11    178.4      4.0403E+05  5.2308E+05  6.3457E+05  6.8161E+05  7.1351E+05  7.3357E+05  6.9707E+05  6.0665E+05  5.0772E+05
       3.7671E+05   178.4    
  12    178.4      4.5000E+05  5.2925E+05  6.2342E+05  6.9213E+05  7.2236E+05  7.4403E+05  7.0713E+05  6.1668E+05  5.1693E+05
       3.8966E+05   178.4    
  13    178.3      4.0307E+05  5.1720E+05  6.0058E+05  6.6133E+05  7.0011E+05  7.2920E+05  6.9780E+05  6.2320E+05  5.2844E+05
       4.2392E+05   178.3    
  14    178.3      3.8724E+05  4.9578E+05  5.8862E+05  6.4749E+05  6.8346E+05  7.0127E+05  6.9692E+05  6.2096E+05  5.2190E+05
       4.0660E+05   178.3    
  15    178.2      3.8297E+05  4.8936E+05  5.7252E+05  6.3552E+05  6.7994E+05  6.9534E+05  6.9126E+05  6.3042E+05  5.3012E+05
       4.0820E+05   178.2    
  16    178.2      4.1579E+05  5.0475E+05  5.6478E+05  6.1909E+05  6.7252E+05  6.8448E+05  6.7217E+05  6.1621E+05  5.5848E+05
       4.2354E+05   178.2    
  17    178.2      3.8755E+05  4.7720E+05  5.4616E+05  6.0210E+05  6.4383E+05  6.7633E+05  6.4953E+05  5.9052E+05  5.1848E+05
       4.2160E+05   178.2    
  18    178.1      3.6263E+05  4.5900E+05  5.3613E+05  5.9795E+05  6.2375E+05  6.3502E+05  6.1346E+05  5.7179E+05  5.0223E+05
       3.9351E+05   178.1    
  19    178.1      3.3590E+05  4.4512E+05  5.4040E+05  5.8879E+05  6.1641E+05  6.2123E+05  5.9499E+05  5.7007E+05  5.0337E+05
       4.0254E+05   178.1    
  20    178.0      3.2307E+05  4.4496E+05  5.4450E+05  5.9951E+05  5.9756E+05  5.9096E+05  5.7489E+05  5.6532E+05  4.5611E+05
       3.5585E+05   178.0    
  21    178.0      3.0521E+05  4.3764E+05  4.9175E+05  5.3988E+05  5.8288E+05  5.6092E+05  5.3077E+05  4.8447E+05  3.9764E+05
       3.0480E+05   178.0    
  22    177.9      2.6783E+05  3.9215E+05  4.3065E+05  4.8057E+05  5.1886E+05  4.8691E+05  4.9083E+05  4.3495E+05  3.4465E+05
       2.5469E+05   177.9    
  23    177.9      2.0355E+05  2.8773E+05  3.5786E+05  3.9195E+05  3.8116E+05  3.6561E+05  3.5959E+05  3.2040E+05  2.6319E+05
       2.0701E+05   177.9    
  24    177.9       177.9       177.9       177.9       177.9       177.9       177.9       177.9       177.9       177.9    
        177.9       177.9    

 HEAD WILL BE SAVED ON UNIT 1016 AT END OF TIME STEP    1, STRESS PERIOD    8


  VOLUME BUDGET FOR ENTIRE MODEL AT END OF TIME STEP    1, STRESS PERIOD   8
  ---------------------------------------------------------------------------------------------------

     CUMULATIVE VOLUME      L**3       RATES FOR THIS TIME STEP      L**3/T          PACKAGE NAME    
     ------------------                 ------------------------                     ----------------

           IN:                                      IN:
           ---                                      ---
                 RCH =   164452796.9944                   RCH =    31278469.1206     RCH_0                            
                 CHD =           0.0000                   CHD =           0.0000     CHD                              

            TOTAL IN =   164452796.9944              TOTAL IN =    31278469.1206

          OUT:                                     OUT:
          ----                                     ----
                 RCH =           0.0000                   RCH =           0.0000     RCH_0                            
                 CHD =   164452796.9919                   CHD =    31278469.1204     CHD                              

           TOTAL OUT =   164452796.9919             TOTAL OUT =    31278469.1204

            IN - OUT =       2.4411E-03              IN - OUT =       2.1709E-04

 PERCENT DISCREPANCY =           0.00     PERCENT DISCREPANCY =           0.00




         TIME SUMMARY AT END OF TIME STEP    1 IN STRESS PERIOD    8
                    SECONDS     MINUTES      HOURS       DAYS        YEARS
                    -----------------------------------------------------------
   TIME STEP LENGTH  86400.      1440.0      24.000      1.0000     2.73785E-03
 STRESS PERIOD TIME  86400.      1440.0      24.000      1.0000     2.73785E-03
         TOTAL TIME 6.91200E+05  11520.      192.00      8.0000     2.19028E-02


end timestep


start timestep kper="9" kstp="1" mode="normal"


 OUTPUT CONTROL FOR STRESS PERIOD 9 IS REPEATED USING SETTINGS FROM A PREVIOUS STRESS PERIOD.
 UBDSV1 SAVING     FLOW-JA-FACE ON UNIT   1015 AT TIME STEP      1, STRESS PERIOD      9
 UBDSV06 SAVING              CHD IN MODEL HILLSLOPE        PACKAGE HILLSLOPE       CONNECTED TO MODEL HILLSLOPE        PACKAGE CHD              ON UNIT   1015 AT TIME STEP      1, STRESS PERIOD      9
1
  HEAD IN LAYER   1 AT END OF TIME STEP   1 IN STRESS PERIOD    9
  ---------------------------------------------------------------------------

            1           2           3           4           5           6           7           8           9          10
           11          12
 ................................................................................................................................................
   1    178.9       178.9       178.9       178.9       178.9       178.9       178.9       178.9       178.9       178.9    
        178.9       178.9    
   2    178.8      1.7744E+05  2.1889E+05  2.6102E+05  2.9813E+05  2.8438E+05  2.7559E+05  2.7684E+05  2.5813E+05  2.3982E+05
       1.8136E+05   178.8    
   3    178.8      2.1953E+05  2.8807E+05  3.3294E+05  3.8111E+05  3.9032E+05  3.7353E+05  3.5748E+05  3.3550E+05  3.1184E+05
       2.3127E+05   178.8    
   4    178.7      2.7170E+05  3.6943E+05  4.0055E+05  4.4017E+05  4.7388E+05  4.6971E+05  4.4263E+05  3.9951E+05  3.5869E+05
       2.5832E+05   178.7    
   5    178.7      2.9833E+05  3.9465E+05  4.5320E+05  4.9739E+05  5.2478E+05  5.2708E+05  4.8736E+05  4.4007E+05  3.7125E+05
       2.8459E+05   178.7    
   6    178.6      3.4250E+05  4.4617E+05  5.1259E+05  5.6044E+05  5.7885E+05  5.8626E+05  5.3201E+05  4.7116E+05  3.9671E+05
       3.0739E+05   178.6    
   7    178.6      4.0142E+05  4.8369E+05  5.8664E+05  6.4945E+05  6.3086E+05  6.1599E+05  5.7889E+05  5.1083E+05  4.3594E+05
       3.2481E+05   178.6    
   8    178.5      3.9068E+05  4.9882E+05  5.9889E+05  6.8338E+05  6.7873E+05  6.5305E+05  6.2058E+05  5.5081E+05  4.6472E+05
       3.5716E+05   178.5    
   9    178.5      3.9744E+05  5.1536E+05  6.1025E+05  6.7050E+05  7.0162E+05  6.9481E+05  6.9908E+05  6.0130E+05  5.0804E+05
       3.8113E+05   178.5    
  10    178.5      3.9508E+05  5.2886E+05  6.3603E+05  6.8625E+05  7.2867E+05  7.2505E+05  7.2635E+05  6.1378E+05  5.0770E+05
       3.8444E+05   178.5    
  11    178.4      4.0973E+05  5.3213E+05  6.4636E+05  6.9488E+05  7.2734E+05  7.4756E+05  7.1010E+05  6.1851E+05  5.1837E+05
       3.8466E+05   178.4    
  12    178.4      4.5314E+05  5.3778E+05  6.3554E+05  7.0595E+05  7.3714E+05  7.5892E+05  7.2150E+05  6.2954E+05  5.2793E+05
       3.9758E+05   178.4    
  13    178.3      4.0918E+05  5.2681E+05  6.1276E+05  6.7511E+05  7.1481E+05  7.4446E+05  7.1267E+05  6.3655E+05  5.3946E+05
       4.3174E+05   178.3    
  14    178.3      3.9440E+05  5.0550E+05  6.0102E+05  6.6151E+05  6.9816E+05  7.1622E+05  7.1171E+05  6.3400E+05  5.3243E+05
       4.1465E+05   178.3    
  15    178.2      3.9001E+05  4.9904E+05  5.8458E+05  6.4933E+05  6.9471E+05  7.1038E+05  7.0584E+05  6.4319E+05  5.4000E+05
       4.1597E+05   178.2    
  16    178.2      4.2263E+05  5.1456E+05  5.7639E+05  6.3193E+05  6.8657E+05  6.9871E+05  6.8596E+05  6.2782E+05  5.6681E+05
       4.3085E+05   178.2    
  17    178.2      3.9501E+05  4.8660E+05  5.5691E+05  6.1391E+05  6.5633E+05  6.8919E+05  6.6199E+05  6.0114E+05  5.2696E+05
       4.2843E+05   178.2    
  18    178.1      3.6973E+05  4.6769E+05  5.4601E+05  6.0903E+05  6.3499E+05  6.4627E+05  6.2405E+05  5.8132E+05  5.1031E+05
       3.9954E+05   178.1    
  19    178.1      3.4162E+05  4.5252E+05  5.4932E+05  5.9812E+05  6.2643E+05  6.3123E+05  6.0393E+05  5.7809E+05  5.1042E+05
       4.0786E+05   178.1    
  20    178.0      3.2768E+05  4.5122E+05  5.5165E+05  6.0680E+05  6.0537E+05  5.9897E+05  5.8201E+05  5.6985E+05  4.6154E+05
       3.6089E+05   178.0    
  21    178.0      3.0845E+05  4.4175E+05  4.9726E+05  5.4578E+05  5.8879E+05  5.6750E+05  5.3665E+05  4.8961E+05  4.0254E+05
       3.0917E+05   178.0    
  22    177.9      2.6998E+05  3.9439E+05  4.3451E+05  4.8513E+05  5.2234E+05  4.9147E+05  4.9468E+05  4.3954E+05  3.4929E+05
       2.5847E+05   177.9    
  23    177.9      2.0522E+05  2.9008E+05  3.6098E+05  3.9530E+05  3.8442E+05  3.6920E+05  3.6363E+05  3.2460E+05  2.6716E+05
       2.1058E+05   177.9    
  24    177.9       177.9       177.9       177.9       177.9       177.9       177.9       177.9       177.9       177.9    
        177.9       177.9    

 HEAD WILL BE SAVED ON UNIT 1016 AT END OF TIME STEP    1, STRESS PERIOD    9


  VOLUME BUDGET FOR ENTIRE MODEL AT END OF TIME STEP    1, STRESS PERIOD   9
  ---------------------------------------------------------------------------------------------------

     CUMULATIVE VOLUME      L**3       RATES FOR THIS TIME STEP      L**3/T          PACKAGE NAME    
     ------------------                 ------------------------                     ----------------

           IN:                                      IN:
           ---                                      ---
                 RCH =   196285077.5736                   RCH =    31832280.5792     RCH_0                            
                 CHD =           0.0000                   CHD =           0.0000     CHD                              

            TOTAL IN =   196285077.5736              TOTAL IN =    31832280.5792

          OUT:                                     OUT:
          ----                                     ----
                 RCH =           0.0000                   RCH =           0.0000     RCH_0                            
                 CHD =   196285077.5708                   CHD =    31832280.5789     CHD                              

           TOTAL OUT =   196285077.5708             TOTAL OUT =    31832280.5789

            IN - OUT =       2.8097E-03              IN - OUT =       3.6863E-04

 PERCENT DISCREPANCY =           0.00     PERCENT DISCREPANCY =           0.00




         TIME SUMMARY AT END OF TIME STEP    1 IN STRESS PERIOD    9
                    SECONDS     MINUTES      HOURS       DAYS        YEARS
                    -----------------------------------------------------------
   TIME STEP LENGTH  86400.      1440.0      24.000      1.0000     2.73785E-03
 STRESS PERIOD TIME  86400.      1440.0      24.000      1.0000     2.73785E-03
         TOTAL TIME 7.77600E+05  12960.      216.00      9.0000     2.46407E-02


end timestep


start timestep kper="10" kstp="1" mode="normal"


 OUTPUT CONTROL FOR STRESS PERIOD 10 IS REPEATED USING SETTINGS FROM A PREVIOUS STRESS PERIOD.
 UBDSV1 SAVING     FLOW-JA-FACE ON UNIT   1015 AT TIME STEP      1, STRESS PERIOD     10
 UBDSV06 SAVING              CHD IN MODEL HILLSLOPE        PACKAGE HILLSLOPE       CONNECTED TO MODEL HILLSLOPE        PACKAGE CHD              ON UNIT   1015 AT TIME STEP      1, STRESS PERIOD     10
1
  HEAD IN LAYER   1 AT END OF TIME STEP   1 IN STRESS PERIOD   10
  ---------------------------------------------------------------------------

            1           2           3           4           5           6           7           8           9          10
           11          12
 ................................................................................................................................................
   1    178.9       178.9       178.9       178.9       178.9       178.9       178.9       178.9       178.9       178.9    
        178.9       178.9    
   2    178.8      1.9055E+05  2.3516E+05  2.8066E+05  3.1981E+05  3.0597E+05  2.9704E+05  2.9918E+05  2.7954E+05  2.5941E+05
       1.9665E+05   178.8    
   3    178.8      2.3522E+05  3.0829E+05  3.5681E+05  4.0917E+05  4.1998E+05  4.0224E+05  3.8570E+05  3.6262E+05  3.3633E+05
       2.5038E+05   178.8    
   4    178.7      2.9010E+05  3.9240E+05  4.2794E+05  4.7151E+05  5.0850E+05  5.0502E+05  4.7714E+05  4.3108E+05  3.8598E+05
       2.7882E+05   178.7    
   5    178.7      3.1776E+05  4.2040E+05  4.8353E+05  5.3169E+05  5.6233E+05  5.6565E+05  5.2399E+05  4.7421E+05  4.0000E+05
       3.0736E+05   178.7    
   6    178.6      3.6374E+05  4.7481E+05  5.4521E+05  5.9642E+05  6.1784E+05  6.2653E+05  5.7017E+05  5.0613E+05  4.2674E+05
       3.3144E+05   178.6    
   7    178.6      4.2273E+05  5.1297E+05  6.2167E+05  6.8688E+05  6.7104E+05  6.5716E+05  6.1876E+05  5.4716E+05  4.6813E+05
       3.4925E+05   178.6    
   8    178.5      4.1551E+05  5.3068E+05  6.3632E+05  7.2314E+05  7.2179E+05  6.9486E+05  6.6024E+05  5.8792E+05  4.9761E+05
       3.8364E+05   178.5    
   9    178.5      4.2410E+05  5.5012E+05  6.5031E+05  7.1307E+05  7.4663E+05  7.3783E+05  7.3884E+05  6.3984E+05  5.4256E+05
       4.0864E+05   178.5    
  10    178.5      4.2078E+05  5.6443E+05  6.7836E+05  7.3165E+05  7.7602E+05  7.7048E+05  7.6790E+05  6.5280E+05  5.4214E+05
       4.1166E+05   178.5    
  11    178.4      4.3424E+05  5.6667E+05  6.8936E+05  7.4189E+05  7.7597E+05  7.9681E+05  7.5646E+05  6.5990E+05  5.5446E+05
       4.1150E+05   178.4    
  12    178.4      4.7490E+05  5.7159E+05  6.7886E+05  7.5414E+05  7.8789E+05  8.1026E+05  7.7078E+05  6.7325E+05  5.6509E+05
       4.2486E+05   178.4    
  13    178.3      4.3422E+05  5.6189E+05  6.5518E+05  7.2225E+05  7.6470E+05  7.9603E+05  7.6272E+05  6.8146E+05  5.7697E+05
       4.5993E+05   178.3    
  14    178.3      4.2029E+05  5.3966E+05  6.4311E+05  7.0860E+05  7.4753E+05  7.6653E+05  7.6162E+05  6.7828E+05  5.6882E+05
       4.4269E+05   178.3    
  15    178.2      4.1512E+05  5.3257E+05  6.2529E+05  6.9548E+05  7.4393E+05  7.6076E+05  7.5523E+05  6.8730E+05  5.7541E+05
       4.4347E+05   178.2    
  16    178.2      4.4780E+05  5.4838E+05  6.1577E+05  6.7545E+05  7.3400E+05  7.4701E+05  7.3323E+05  6.6928E+05  6.0019E+05
       4.5788E+05   178.2    
  17    178.2      4.2076E+05  5.1892E+05  5.9401E+05  6.5477E+05  6.9980E+05  7.3433E+05  7.0577E+05  6.3974E+05  5.5916E+05
       4.5421E+05   178.2    
  18    178.1      3.9423E+05  4.9810E+05  5.8097E+05  6.4823E+05  6.7532E+05  6.8706E+05  6.6313E+05  6.1720E+05  5.4119E+05
       4.2312E+05   178.1    
  19    178.1      3.6263E+05  4.7992E+05  5.8229E+05  6.3341E+05  6.6400E+05  6.6908E+05  6.3925E+05  6.1107E+05  5.3922E+05
       4.3041E+05   178.1    
  20    178.0      3.4617E+05  4.7640E+05  5.8111E+05  6.3809E+05  6.3801E+05  6.3213E+05  6.1337E+05  5.9640E+05  4.8608E+05
       3.8155E+05   178.0    
  21    178.0      3.2371E+05  4.6255E+05  5.2232E+05  5.7292E+05  6.1727E+05  5.9701E+05  5.6423E+05  5.1453E+05  4.2427E+05
       3.2697E+05   178.0    
  22    177.9      2.8207E+05  4.1033E+05  4.5463E+05  5.0815E+05  5.4490E+05  5.1507E+05  5.1703E+05  4.6170E+05  3.6885E+05
       2.7367E+05   177.9    
  23    177.9      2.1445E+05  3.0307E+05  3.7739E+05  4.1339E+05  4.0227E+05  3.8733E+05  3.8259E+05  3.4273E+05  2.8307E+05
       2.2407E+05   177.9    
  24    177.9       177.9       177.9       177.9       177.9       177.9       177.9       177.9       177.9       177.9    
        177.9       177.9    

 HEAD WILL BE SAVED ON UNIT 1016 AT END OF TIME STEP    1, STRESS PERIOD   10


  VOLUME BUDGET FOR ENTIRE MODEL AT END OF TIME STEP    1, STRESS PERIOD  10
  ---------------------------------------------------------------------------------------------------

     CUMULATIVE VOLUME      L**3       RATES FOR THIS TIME STEP      L**3/T          PACKAGE NAME    
     ------------------                 ------------------------                     ----------------

           IN:                                      IN:
           ---                                      ---
                 RCH =   230151615.6565                   RCH =    33866538.0829     RCH_0                            
                 CHD =           0.0000                   CHD =           0.0000     CHD                              

            TOTAL IN =   230151615.6565              TOTAL IN =    33866538.0829

          OUT:                                     OUT:
          ----                                     ----
                 RCH =           0.0000                   RCH =           0.0000     RCH_0                            
                 CHD =   230151615.6533                   CHD =    33866538.0825     CHD                              

           TOTAL OUT =   230151615.6533             TOTAL OUT =    33866538.0825

            IN - OUT =       3.2435E-03              IN - OUT =       4.3375E-04

 PERCENT DISCREPANCY =           0.00     PERCENT DISCREPANCY =           0.00




         TIME SUMMARY AT END OF TIME STEP    1 IN STRESS PERIOD   10
                    SECONDS     MINUTES      HOURS       DAYS        YEARS
                    -----------------------------------------------------------
   TIME STEP LENGTH  86400.      1440.0      24.000      1.0000     2.73785E-03
 STRESS PERIOD TIME  86400.      1440.0      24.000      1.0000     2.73785E-03
         TOTAL TIME 8.64000E+05  14400.      240.00      10.000     2.73785E-02


end timestep


start timestep kper="11" kstp="1" mode="normal"


 OUTPUT CONTROL FOR STRESS PERIOD 11 IS REPEATED USING SETTINGS FROM A PREVIOUS STRESS PERIOD.
 UBDSV1 SAVING     FLOW-JA-FACE ON UNIT   1015 AT TIME STEP      1, STRESS PERIOD     11
 UBDSV06 SAVING              CHD IN MODEL HILLSLOPE        PACKAGE HILLSLOPE       CONNECTED TO MODEL HILLSLOPE        PACKAGE CHD              ON UNIT   1015 AT TIME STEP      1, STRESS PERIOD     11
1
  HEAD IN LAYER   1 AT END OF TIME STEP   1 IN STRESS PERIOD   11
  ---------------------------------------------------------------------------

            1           2           3           4           5           6           7           8           9          10
           11          12
 ................................................................................................................................................
   1    178.9       178.9       178.9       178.9       178.9       178.9       178.9       178.9       178.9       178.9    
        178.9       178.9    
   2    178.8      1.9332E+05  2.3850E+05  2.8457E+05  3.2311E+05  3.1041E+05  3.0223E+05  3.0556E+05  2.8621E+05  2.6508E+05
       2.0184E+05   178.8    
   3    178.8      2.3756E+05  3.1059E+05  3.6008E+05  4.1372E+05  4.2590E+05  4.0869E+05  3.9289E+05  3.7032E+05  3.4238E+05
       2.5633E+05   178.8    
   4    178.7      2.9128E+05  3.9059E+05  4.3008E+05  4.7584E+05  5.1458E+05  5.1234E+05  4.8511E+05  4.3932E+05  3.9207E+05
       2.8454E+05   178.7    
   5    178.7      3.1805E+05  4.2074E+05  4.8517E+05  5.3509E+05  5.6791E+05  5.7258E+05  5.3174E+05  4.8272E+05  4.0740E+05
       3.1424E+05   178.7    
   6    178.6      3.6252E+05  4.7422E+05  5.4453E+05  5.9654E+05  6.2080E+05  6.3064E+05  5.7651E+05  5.1353E+05  4.3397E+05
       3.3832E+05   178.6    
   7    178.6      4.1638E+05  5.1005E+05  6.1715E+05  6.8103E+05  6.7108E+05  6.6037E+05  6.2387E+05  5.5341E+05  4.7513E+05
       3.5516E+05   178.6    
   8    178.5      4.1494E+05  5.3015E+05  6.3458E+05  7.1748E+05  7.2157E+05  6.9601E+05  6.6188E+05  5.9217E+05  5.0336E+05
       3.8962E+05   178.5    
   9    178.5      4.2556E+05  5.5200E+05  6.5135E+05  7.1272E+05  7.4756E+05  7.3738E+05  7.3481E+05  6.4212E+05  5.4694E+05
       4.1402E+05   178.5    
  10    178.5      4.2132E+05  5.6642E+05  6.8012E+05  7.3385E+05  7.7769E+05  7.7056E+05  7.6376E+05  6.5432E+05  5.4631E+05
       4.1648E+05   178.5    
  11    178.4      4.3229E+05  5.6726E+05  6.9066E+05  7.4526E+05  7.7919E+05  7.9940E+05  7.5882E+05  6.6352E+05  5.5940E+05
       4.1528E+05   178.4    
  12    178.4      4.6603E+05  5.7123E+05  6.8225E+05  7.5820E+05  7.9290E+05  8.1393E+05  7.7482E+05  6.7840E+05  5.7013E+05
       4.2753E+05   178.4    
  13    178.3      4.3374E+05  5.6475E+05  6.6037E+05  7.2824E+05  7.7077E+05  8.0146E+05  7.6848E+05  6.8725E+05  5.8119E+05
       4.5995E+05   178.3    
  14    178.3      4.2267E+05  5.4357E+05  6.4957E+05  7.1614E+05  7.5454E+05  7.7253E+05  7.6652E+05  6.8293E+05  5.7188E+05
       4.4477E+05   178.3    
  15    178.2      4.1687E+05  5.3640E+05  6.3150E+05  7.0298E+05  7.5133E+05  7.6741E+05  7.5976E+05  6.9028E+05  5.7634E+05
       4.4490E+05   178.2    
  16    178.2      4.4720E+05  5.5145E+05  6.2101E+05  6.8100E+05  7.3959E+05  7.5224E+05  7.3725E+05  6.7074E+05  5.9616E+05
       4.5728E+05   178.2    
  17    178.2      4.2281E+05  5.2224E+05  5.9771E+05  6.5837E+05  7.0286E+05  7.3620E+05  7.0810E+05  6.4033E+05  5.5739E+05
       4.5214E+05   178.2    
  18    178.1      3.9633E+05  5.0030E+05  5.8266E+05  6.5007E+05  6.7641E+05  6.8761E+05  6.6304E+05  6.1638E+05  5.3949E+05
       4.2057E+05   178.1    
  19    178.1      3.6242E+05  4.7913E+05  5.8108E+05  6.3122E+05  6.6256E+05  6.6753E+05  6.3628E+05  6.0687E+05  5.3484E+05
       4.2518E+05   178.1    
  20    178.0      3.4357E+05  4.7240E+05  5.7468E+05  6.3001E+05  6.3170E+05  6.2707E+05  6.0725E+05  5.8488E+05  4.8047E+05
       3.7883E+05   178.0    
  21    178.0      3.1814E+05  4.5288E+05  5.1421E+05  5.6389E+05  6.0650E+05  5.8939E+05  5.5675E+05  5.0731E+05  4.1995E+05
       3.2522E+05   178.0    
  22    177.9      2.7548E+05  3.9825E+05  4.4482E+05  4.9812E+05  5.3082E+05  5.0571E+05  5.0595E+05  4.5436E+05  3.6604E+05
       2.7240E+05   177.9    
  23    177.9      2.0954E+05  2.9600E+05  3.6830E+05  4.0330E+05  3.9356E+05  3.8066E+05  3.7744E+05  3.3970E+05  2.8198E+05
       2.2390E+05   177.9    
  24    177.9       177.9       177.9       177.9       177.9       177.9       177.9       177.9       177.9       177.9    
        177.9       177.9    

 HEAD WILL BE SAVED ON UNIT 1016 AT END OF TIME STEP    1, STRESS PERIOD   11


  VOLUME BUDGET FOR ENTIRE MODEL AT END OF TIME STEP    1, STRESS PERIOD  11
  ---------------------------------------------------------------------------------------------------

     CUMULATIVE VOLUME      L**3       RATES FOR THIS TIME STEP      L**3/T          PACKAGE NAME    
     ------------------                 ------------------------                     ----------------

           IN:                                      IN:
           ---                                      ---
                 RCH =   264050260.2935                   RCH =    33898644.6370     RCH_0                            
                 CHD =           0.0000                   CHD =           0.0000     CHD                              

            TOTAL IN =   264050260.2935              TOTAL IN =    33898644.6370

          OUT:                                     OUT:
          ----                                     ----
                 RCH =           0.0000                   RCH =           0.0000     RCH_0                            
                 CHD =   264050260.2905                   CHD =    33898644.6372     CHD                              

           TOTAL OUT =   264050260.2905             TOTAL OUT =    33898644.6372

            IN - OUT =       2.9707E-03              IN - OUT =      -2.7282E-04

 PERCENT DISCREPANCY =           0.00     PERCENT DISCREPANCY =          -0.00




         TIME SUMMARY AT END OF TIME STEP    1 IN STRESS PERIOD   11
                    SECONDS     MINUTES      HOURS       DAYS        YEARS
                    -----------------------------------------------------------
   TIME STEP LENGTH  86400.      1440.0      24.000      1.0000     2.73785E-03
 STRESS PERIOD TIME  86400.      1440.0      24.000      1.0000     2.73785E-03
         TOTAL TIME 9.50400E+05  15840.      264.00      11.000     3.01164E-02


end timestep


start timestep kper="12" kstp="1" mode="normal"


 OUTPUT CONTROL FOR STRESS PERIOD 12 IS REPEATED USING SETTINGS FROM A PREVIOUS STRESS PERIOD.
 UBDSV1 SAVING     FLOW-JA-FACE ON UNIT   1015 AT TIME STEP      1, STRESS PERIOD     12
 UBDSV06 SAVING              CHD IN MODEL HILLSLOPE        PACKAGE HILLSLOPE       CONNECTED TO MODEL HILLSLOPE        PACKAGE CHD              ON UNIT   1015 AT TIME STEP      1, STRESS PERIOD     12
1
  HEAD IN LAYER   1 AT END OF TIME STEP   1 IN STRESS PERIOD   12
  ---------------------------------------------------------------------------

            1           2           3           4           5           6           7           8           9          10
           11          12
 ................................................................................................................................................
   1    178.9       178.9       178.9       178.9       178.9       178.9       178.9       178.9       178.9       178.9    
        178.9       178.9    
[...]
 STRESS PERIOD TIME  86400.      1440.0      24.000      1.0000     2.73785E-03
         TOTAL TIME 3.12768E+07 5.21280E+05  8688.0      362.00     0.99110    


end timestep


start timestep kper="363" kstp="1" mode="normal"


 OUTPUT CONTROL FOR STRESS PERIOD 363 IS REPEATED USING SETTINGS FROM A PREVIOUS STRESS PERIOD.
 UBDSV1 SAVING     FLOW-JA-FACE ON UNIT   1015 AT TIME STEP      1, STRESS PERIOD    363
 UBDSV06 SAVING              CHD IN MODEL HILLSLOPE        PACKAGE HILLSLOPE       CONNECTED TO MODEL HILLSLOPE        PACKAGE CHD              ON UNIT   1015 AT TIME STEP      1, STRESS PERIOD    363
1
  HEAD IN LAYER   1 AT END OF TIME STEP   1 IN STRESS PERIOD  363
  ---------------------------------------------------------------------------

            1           2           3           4           5           6           7           8           9          10
           11          12
 ................................................................................................................................................
   1    178.9       178.9       178.9       178.9       178.9       178.9       178.9       178.9       178.9       178.9    
        178.9       178.9    
   2    178.8      7.5525E+05  1.0102E+06  1.2049E+06  1.3079E+06  1.4774E+06  1.4517E+06  1.3734E+06  1.2928E+06  1.0350E+06
       8.0621E+05   178.8    
   3    178.8      1.0717E+06  1.4011E+06  1.6353E+06  1.7509E+06  1.9233E+06  1.9379E+06  1.8700E+06  1.7294E+06  1.3860E+06
       1.0896E+06   178.8    
   4    178.7      1.2325E+06  1.6048E+06  1.9251E+06  2.1029E+06  2.2157E+06  2.2437E+06  2.2474E+06  2.0601E+06  1.6755E+06
       1.3038E+06   178.7    
   5    178.7      1.4066E+06  1.8279E+06  2.1768E+06  2.4538E+06  2.5795E+06  2.5492E+06  2.5034E+06  2.3256E+06  1.9246E+06
       1.4262E+06   178.7    
   6    178.6      1.5608E+06  2.0459E+06  2.3736E+06  2.6370E+06  2.7686E+06  2.7640E+06  2.7419E+06  2.5327E+06  2.0942E+06
       1.5311E+06   178.6    
   7    178.6      1.6190E+06  2.1703E+06  2.5123E+06  2.7447E+06  2.9469E+06  2.9699E+06  2.8354E+06  2.6066E+06  2.1608E+06
       1.6357E+06   178.6    
   8    178.5      1.7578E+06  2.3331E+06  2.7138E+06  2.8807E+06  3.0534E+06  3.0590E+06  2.9105E+06  2.6396E+06  2.2280E+06
       1.6628E+06   178.5    
   9    178.5      1.7818E+06  2.4284E+06  2.8068E+06  3.0084E+06  3.0933E+06  3.0933E+06  2.8691E+06  2.5941E+06  2.1810E+06
       1.6653E+06   178.5    
  10    178.5      1.8255E+06  2.4350E+06  2.7832E+06  3.0415E+06  3.1098E+06  3.1097E+06  2.8764E+06  2.6143E+06  2.2175E+06
       1.6648E+06   178.5    
  11    178.4      1.8316E+06  2.4620E+06  2.8400E+06  3.1119E+06  3.1740E+06  3.0668E+06  2.9114E+06  2.6655E+06  2.2647E+06
       1.7145E+06   178.4    
  12    178.4      1.7868E+06  2.3953E+06  2.8341E+06  3.0548E+06  3.1333E+06  3.0561E+06  2.8929E+06  2.6501E+06  2.2691E+06
       1.7055E+06   178.4    
  13    178.3      1.8170E+06  2.3273E+06  2.7694E+06  3.0445E+06  3.1207E+06  3.0449E+06  2.9121E+06  2.6135E+06  2.2083E+06
       1.6552E+06   178.3    
  14    178.3      1.7106E+06  2.2592E+06  2.6542E+06  2.9662E+06  3.1039E+06  3.0634E+06  2.8613E+06  2.6170E+06  2.2487E+06
       1.6640E+06   178.3    
  15    178.2      1.6647E+06  2.2309E+06  2.5847E+06  2.8878E+06  2.9665E+06  2.9858E+06  2.8172E+06  2.6022E+06  2.1948E+06
       1.6350E+06   178.2    
  16    178.2      1.5732E+06  2.0907E+06  2.4813E+06  2.7610E+06  2.8406E+06  2.8308E+06  2.7548E+06  2.5410E+06  2.0865E+06
       1.5883E+06   178.2    
  17    178.2      1.5575E+06  2.0672E+06  2.4212E+06  2.6239E+06  2.7304E+06  2.6820E+06  2.6029E+06  2.4176E+06  2.0187E+06
       1.5096E+06   178.2    
  18    178.1      1.5356E+06  1.9612E+06  2.2805E+06  2.4521E+06  2.5637E+06  2.5540E+06  2.5156E+06  2.2891E+06  1.9245E+06
       1.4818E+06   178.1    
  19    178.1      1.4886E+06  1.8422E+06  2.0644E+06  2.2501E+06  2.3423E+06  2.3469E+06  2.3168E+06  2.0959E+06  1.7676E+06
       1.3415E+06   178.1    
  20    178.0      1.4023E+06  1.6778E+06  1.8619E+06  2.0102E+06  2.1464E+06  2.1479E+06  2.1239E+06  1.9160E+06  1.6929E+06
       1.2570E+06   178.0    
  21    178.0      1.2084E+06  1.4388E+06  1.6921E+06  1.7793E+06  1.8331E+06  1.8827E+06  1.8787E+06  1.7491E+06  1.5478E+06
       1.1714E+06   178.0    
  22    177.9      9.9277E+05  1.1729E+06  1.3793E+06  1.4523E+06  1.5190E+06  1.5746E+06  1.5438E+06  1.4550E+06  1.3067E+06
       1.0945E+06   177.9    
  23    177.9      7.3044E+05  8.7923E+05  9.9566E+05  1.0904E+06  1.2109E+06  1.2635E+06  1.2656E+06  1.2140E+06  1.0825E+06
       9.1257E+05   177.9    
  24    177.9       177.9       177.9       177.9       177.9       177.9       177.9       177.9       177.9       177.9    
        177.9       177.9    

 HEAD WILL BE SAVED ON UNIT 1016 AT END OF TIME STEP    1, STRESS PERIOD  363


  VOLUME BUDGET FOR ENTIRE MODEL AT END OF TIME STEP    1, STRESS PERIOD 363
  ---------------------------------------------------------------------------------------------------

     CUMULATIVE VOLUME      L**3       RATES FOR THIS TIME STEP      L**3/T          PACKAGE NAME    
     ------------------                 ------------------------                     ----------------

           IN:                                      IN:
           ---                                      ---
                 RCH = 16421734713.9596                   RCH =   132404469.4855     RCH_0                            
                 CHD =           0.0000                   CHD =           0.0000     CHD                              

            TOTAL IN = 16421734713.9596              TOTAL IN =   132404469.4855

          OUT:                                     OUT:
          ----                                     ----
                 RCH =           0.0000                   RCH =           0.0000     RCH_0                            
                 CHD = 16421734713.9556                   CHD =   132404469.4850     CHD                              

           TOTAL OUT = 16421734713.9556             TOTAL OUT =   132404469.4850

            IN - OUT =       3.9539E-03              IN - OUT =       4.6413E-04

 PERCENT DISCREPANCY =           0.00     PERCENT DISCREPANCY =           0.00




         TIME SUMMARY AT END OF TIME STEP    1 IN STRESS PERIOD  363
                    SECONDS     MINUTES      HOURS       DAYS        YEARS
                    -----------------------------------------------------------
   TIME STEP LENGTH  86400.      1440.0      24.000      1.0000     2.73785E-03
 STRESS PERIOD TIME  86400.      1440.0      24.000      1.0000     2.73785E-03
         TOTAL TIME 3.13632E+07 5.22720E+05  8712.0      363.00     0.99384    


end timestep


start timestep kper="364" kstp="1" mode="normal"


 OUTPUT CONTROL FOR STRESS PERIOD 364 IS REPEATED USING SETTINGS FROM A PREVIOUS STRESS PERIOD.
 UBDSV1 SAVING     FLOW-JA-FACE ON UNIT   1015 AT TIME STEP      1, STRESS PERIOD    364
 UBDSV06 SAVING              CHD IN MODEL HILLSLOPE        PACKAGE HILLSLOPE       CONNECTED TO MODEL HILLSLOPE        PACKAGE CHD              ON UNIT   1015 AT TIME STEP      1, STRESS PERIOD    364
1
  HEAD IN LAYER   1 AT END OF TIME STEP   1 IN STRESS PERIOD  364
  ---------------------------------------------------------------------------

            1           2           3           4           5           6           7           8           9          10
           11          12
 ................................................................................................................................................
   1    178.9       178.9       178.9       178.9       178.9       178.9       178.9       178.9       178.9       178.9    
        178.9       178.9    
   2    178.8      6.6066E+05  8.8199E+05  1.0460E+06  1.1233E+06  1.2508E+06  1.2436E+06  1.1796E+06  1.1071E+06  8.9468E+05
       7.0319E+05   178.8    
   3    178.8      9.3172E+05  1.2132E+06  1.4129E+06  1.5066E+06  1.6376E+06  1.6552E+06  1.6003E+06  1.4750E+06  1.1935E+06
       9.4400E+05   178.8    
   4    178.7      1.0793E+06  1.3981E+06  1.6708E+06  1.8141E+06  1.8993E+06  1.9222E+06  1.9161E+06  1.7602E+06  1.4433E+06
       1.1279E+06   178.7    
   5    178.7      1.2307E+06  1.5938E+06  1.8896E+06  2.1080E+06  2.2076E+06  2.1905E+06  2.1463E+06  1.9884E+06  1.6611E+06
       1.2397E+06   178.7    
   6    178.6      1.3555E+06  1.7730E+06  2.0584E+06  2.2771E+06  2.3869E+06  2.3784E+06  2.3453E+06  2.1607E+06  1.8077E+06
       1.3324E+06   178.6    
   7    178.6      1.3996E+06  1.8764E+06  2.1704E+06  2.3691E+06  2.5417E+06  2.5611E+06  2.4491E+06  2.2506E+06  1.8788E+06
       1.4296E+06   178.6    
   8    178.5      1.5124E+06  2.0011E+06  2.3272E+06  2.4850E+06  2.6403E+06  2.6505E+06  2.5260E+06  2.2975E+06  1.9444E+06
       1.4620E+06   178.5    
   9    178.5      1.5317E+06  2.0704E+06  2.4079E+06  2.6001E+06  2.6850E+06  2.6872E+06  2.5024E+06  2.2750E+06  1.9190E+06
       1.4726E+06   178.5    
  10    178.5      1.5773E+06  2.0918E+06  2.4001E+06  2.6352E+06  2.7028E+06  2.7063E+06  2.5192E+06  2.3041E+06  1.9622E+06
       1.4781E+06   178.5    
  11    178.4      1.5858E+06  2.1153E+06  2.4540E+06  2.6899E+06  2.7611E+06  2.6840E+06  2.5624E+06  2.3534E+06  2.0060E+06
       1.5251E+06   178.4    
  12    178.4      1.5494E+06  2.0797E+06  2.4592E+06  2.6631E+06  2.7445E+06  2.6876E+06  2.5531E+06  2.3461E+06  2.0095E+06
       1.5184E+06   178.4    
  13    178.3      1.5743E+06  2.0331E+06  2.4204E+06  2.6629E+06  2.7409E+06  2.6808E+06  2.5700E+06  2.3157E+06  1.9586E+06
       1.4727E+06   178.3    
  14    178.3      1.5012E+06  1.9849E+06  2.3335E+06  2.6065E+06  2.7240E+06  2.6941E+06  2.5278E+06  2.3165E+06  1.9845E+06
       1.4803E+06   178.3    
  15    178.2      1.4686E+06  1.9566E+06  2.2809E+06  2.5435E+06  2.6183E+06  2.6326E+06  2.4911E+06  2.2982E+06  1.9439E+06
       1.4567E+06   178.2    
  16    178.2      1.3925E+06  1.8488E+06  2.2003E+06  2.4473E+06  2.5207E+06  2.5103E+06  2.4367E+06  2.2422E+06  1.8508E+06
       1.4160E+06   178.2    
  17    178.2      1.3847E+06  1.8334E+06  2.1507E+06  2.3373E+06  2.4301E+06  2.3853E+06  2.3110E+06  2.1448E+06  1.7976E+06
       1.3453E+06   178.2    
  18    178.1      1.3634E+06  1.7459E+06  2.0304E+06  2.1907E+06  2.2896E+06  2.2782E+06  2.2307E+06  2.0351E+06  1.7151E+06
       1.3185E+06   178.1    
  19    178.1      1.3103E+06  1.6355E+06  1.8395E+06  2.0122E+06  2.0948E+06  2.0964E+06  2.0631E+06  1.8665E+06  1.5715E+06
       1.1933E+06   178.1    
  20    178.0      1.2160E+06  1.4827E+06  1.6533E+06  1.7927E+06  1.9138E+06  1.9194E+06  1.8889E+06  1.6998E+06  1.4932E+06
       1.1135E+06   178.0    
  21    178.0      1.0581E+06  1.2702E+06  1.4945E+06  1.5880E+06  1.6370E+06  1.6830E+06  1.6699E+06  1.5478E+06  1.3592E+06
       1.0305E+06   178.0    
  22    177.9      8.7700E+05  1.0408E+06  1.2263E+06  1.2982E+06  1.3575E+06  1.4072E+06  1.3689E+06  1.2820E+06  1.1451E+06
       9.4615E+05   177.9    
  23    177.9      6.5499E+05  7.8774E+05  8.8909E+05  9.7526E+05  1.0817E+06  1.1247E+06  1.1149E+06  1.0583E+06  9.4133E+05
       7.7792E+05   177.9    
  24    177.9       177.9       177.9       177.9       177.9       177.9       177.9       177.9       177.9       177.9    
        177.9       177.9    

 HEAD WILL BE SAVED ON UNIT 1016 AT END OF TIME STEP    1, STRESS PERIOD  364


  VOLUME BUDGET FOR ENTIRE MODEL AT END OF TIME STEP    1, STRESS PERIOD 364
  ---------------------------------------------------------------------------------------------------

     CUMULATIVE VOLUME      L**3       RATES FOR THIS TIME STEP      L**3/T          PACKAGE NAME    
     ------------------                 ------------------------                     ----------------

           IN:                                      IN:
           ---                                      ---
                 RCH = 16537687686.9830                   RCH =   115952973.0234     RCH_0                            
                 CHD =           0.0000                   CHD =           0.0000     CHD                              

            TOTAL IN = 16537687686.9830              TOTAL IN =   115952973.0234

          OUT:                                     OUT:
          ----                                     ----
                 RCH =           0.0000                   RCH =           0.0000     RCH_0                            
                 CHD = 16537687686.9797                   CHD =   115952973.0241     CHD                              

           TOTAL OUT = 16537687686.9797             TOTAL OUT =   115952973.0241

            IN - OUT =       3.2215E-03              IN - OUT =      -7.3150E-04

 PERCENT DISCREPANCY =           0.00     PERCENT DISCREPANCY =          -0.00




         TIME SUMMARY AT END OF TIME STEP    1 IN STRESS PERIOD  364
                    SECONDS     MINUTES      HOURS       DAYS        YEARS
                    -----------------------------------------------------------
   TIME STEP LENGTH  86400.      1440.0      24.000      1.0000     2.73785E-03
 STRESS PERIOD TIME  86400.      1440.0      24.000      1.0000     2.73785E-03
         TOTAL TIME 3.14496E+07 5.24160E+05  8736.0      364.00     0.99658    


end timestep


start timestep kper="365" kstp="1" mode="normal"


 OUTPUT CONTROL FOR STRESS PERIOD 365 IS REPEATED USING SETTINGS FROM A PREVIOUS STRESS PERIOD.
 UBDSV1 SAVING     FLOW-JA-FACE ON UNIT   1015 AT TIME STEP      1, STRESS PERIOD    365
 UBDSV06 SAVING              CHD IN MODEL HILLSLOPE        PACKAGE HILLSLOPE       CONNECTED TO MODEL HILLSLOPE        PACKAGE CHD              ON UNIT   1015 AT TIME STEP      1, STRESS PERIOD    365
1
  HEAD IN LAYER   1 AT END OF TIME STEP   1 IN STRESS PERIOD  365
  ---------------------------------------------------------------------------

            1           2           3           4           5           6           7           8           9          10
           11          12
 ................................................................................................................................................
   1    178.9       178.9       178.9       178.9       178.9       178.9       178.9       178.9       178.9       178.9    
        178.9       178.9    
   2    178.8      6.3104E+05  8.4186E+05  9.9600E+05  1.0657E+06  1.1802E+06  1.1780E+06  1.1184E+06  1.0479E+06  8.5031E+05
       6.7037E+05   178.8    
   3    178.8      8.8702E+05  1.1534E+06  1.3424E+06  1.4301E+06  1.5478E+06  1.5657E+06  1.5147E+06  1.3941E+06  1.1324E+06
       8.9727E+05   178.8    
   4    178.7      1.0308E+06  1.3329E+06  1.5903E+06  1.7234E+06  1.7998E+06  1.8209E+06  1.8114E+06  1.6647E+06  1.3695E+06
       1.0715E+06   178.7    
   5    178.7      1.1747E+06  1.5198E+06  1.7988E+06  1.9986E+06  2.0903E+06  2.0773E+06  2.0334E+06  1.8814E+06  1.5773E+06
       1.1807E+06   178.7    
   6    178.6      1.2896E+06  1.6859E+06  1.9582E+06  2.1625E+06  2.2656E+06  2.2561E+06  2.2200E+06  2.0439E+06  1.7166E+06
       1.2696E+06   178.6    
   7    178.6      1.3296E+06  1.7827E+06  2.0619E+06  2.2494E+06  2.4119E+06  2.4301E+06  2.3259E+06  2.1370E+06  1.7890E+06
       1.3638E+06   178.6    
   8    178.5      1.4342E+06  1.8956E+06  2.2043E+06  2.3587E+06  2.5077E+06  2.5191E+06  2.4024E+06  2.1876E+06  1.8535E+06
       1.3979E+06   178.5    
   9    178.5      1.4531E+06  1.9581E+06  2.2813E+06  2.4697E+06  2.5545E+06  2.5568E+06  2.3849E+06  2.1730E+06  1.8354E+06
       1.4111E+06   178.5    
  10    178.5      1.4992E+06  1.9835E+06  2.2788E+06  2.5060E+06  2.5731E+06  2.5772E+06  2.4049E+06  2.2049E+06  1.8805E+06
       1.4186E+06   178.5    
  11    178.4      1.5087E+06  2.0066E+06  2.3321E+06  2.5565E+06  2.6296E+06  2.5621E+06  2.4509E+06  2.2532E+06  1.9228E+06
       1.4642E+06   178.4    
  12    178.4      1.4750E+06  1.9802E+06  2.3405E+06  2.5389E+06  2.6209E+06  2.5704E+06  2.4449E+06  2.2488E+06  1.9262E+06
       1.4585E+06   178.4    
  13    178.3      1.4984E+06  1.9407E+06  2.3094E+06  2.5411E+06  2.6197E+06  2.5648E+06  2.4607E+06  2.2210E+06  1.8792E+06
       1.4148E+06   178.3    
  14    178.3      1.4359E+06  1.8988E+06  2.2321E+06  2.4917E+06  2.6026E+06  2.5760E+06  2.4215E+06  2.2205E+06  1.9002E+06
       1.4221E+06   178.3    
  15    178.2      1.4072E+06  1.8703E+06  2.1848E+06  2.4336E+06  2.5074E+06  2.5197E+06  2.3870E+06  2.2006E+06  1.8632E+06
       1.4000E+06   178.2    
  16    178.2      1.3355E+06  1.7721E+06  2.1110E+06  2.3469E+06  2.4187E+06  2.4081E+06  2.3347E+06  2.1460E+06  1.7751E+06
       1.3608E+06   178.2    
  17    178.2      1.3297E+06  1.7584E+06  2.0638E+06  2.2454E+06  2.3336E+06  2.2904E+06  2.2174E+06  2.0566E+06  1.7263E+06
       1.2923E+06   178.2    
  18    178.1      1.3080E+06  1.6768E+06  1.9499E+06  2.1071E+06  2.2016E+06  2.1898E+06  2.1389E+06  1.9528E+06  1.6473E+06
       1.2655E+06   178.1    
  19    178.1      1.2531E+06  1.5691E+06  1.7675E+06  1.9361E+06  2.0157E+06  2.0161E+06  1.9810E+06  1.7925E+06  1.5083E+06
       1.1458E+06   178.1    
  20    178.0      1.1574E+06  1.4203E+06  1.5865E+06  1.7231E+06  1.8389E+06  1.8459E+06  1.8125E+06  1.6297E+06  1.4284E+06
       1.0676E+06   178.0    
  21    178.0      1.0098E+06  1.2162E+06  1.4311E+06  1.5267E+06  1.5740E+06  1.6187E+06  1.6018E+06  1.4823E+06  1.2981E+06
       9.8537E+05   178.0    
  22    177.9      8.3949E+05  9.9843E+05  1.1770E+06  1.2490E+06  1.3056E+06  1.3533E+06  1.3121E+06  1.2259E+06  1.0930E+06
       8.9843E+05   177.9    
  23    177.9      6.3093E+05  7.5885E+05  8.5510E+05  9.3848E+05  1.0396E+06  1.0793E+06  1.0656E+06  1.0077E+06  8.9543E+05
       7.3484E+05   177.9    
  24    177.9       177.9       177.9       177.9       177.9       177.9       177.9       177.9       177.9       177.9    
        177.9       177.9    

 HEAD WILL BE SAVED ON UNIT 1016 AT END OF TIME STEP    1, STRESS PERIOD  365


  VOLUME BUDGET FOR ENTIRE MODEL AT END OF TIME STEP    1, STRESS PERIOD 365
  ---------------------------------------------------------------------------------------------------

     CUMULATIVE VOLUME      L**3       RATES FOR THIS TIME STEP      L**3/T          PACKAGE NAME    
     ------------------                 ------------------------                     ----------------

           IN:                                      IN:
           ---                                      ---
                 RCH = 16648408277.0237                   RCH =   110720590.0407     RCH_0                            
                 CHD =           0.0000                   CHD =           0.0000     CHD                              

            TOTAL IN = 16648408277.0237              TOTAL IN =   110720590.0407

          OUT:                                     OUT:
          ----                                     ----
                 RCH =           0.0000                   RCH =           0.0000     RCH_0                            
                 CHD = 16648408277.0213                   CHD =   110720590.0416     CHD                              

           TOTAL OUT = 16648408277.0213             TOTAL OUT =   110720590.0416

            IN - OUT =       2.3651E-03              IN - OUT =      -8.5656E-04

 PERCENT DISCREPANCY =           0.00     PERCENT DISCREPANCY =          -0.00




         TIME SUMMARY AT END OF TIME STEP    1 IN STRESS PERIOD  365
                    SECONDS     MINUTES      HOURS       DAYS        YEARS
                    -----------------------------------------------------------
   TIME STEP LENGTH  86400.      1440.0      24.000      1.0000     2.73785E-03
 STRESS PERIOD TIME  86400.      1440.0      24.000      1.0000     2.73785E-03
         TOTAL TIME 3.15360E+07 5.25600E+05  8760.0      365.00     0.99932    


end timestep

